data_NiPyC2_relax_sc211_ortho_functionalized_N-2CH3_lammps_PM
_symmetry_space_group_name_H-M	'P1'
_cell_length_a	16.132551
_cell_length_b	10.280874
_cell_length_c	10.536182
_cell_angle_alpha	90.000000
_cell_angle_beta	91.268998
_cell_angle_gamma	90.000000
_symmetry_Int_Tables_number 1

loop_
_symmetry_equiv_pos_as_xyz
'x,y,z'

loop_
_atom_site_label
_atom_site_type_symbol
_atom_site_fract_x
_atom_site_fract_y
_atom_site_fract_z
Ni1	Ni	0.145643	0.878006	0.840768
Ni2	Ni	0.382917	0.385325	0.347119
O1	O	0.005985	0.422142	0.384465
O2	O	0.226792	0.769215	0.849190
O3	O	0.295320	0.285585	0.355451
O4	O	0.062920	0.987105	0.853158
O5	O	0.355237	0.500008	0.470230
O6	O	0.112194	0.762167	0.957232
O7	O	-0.073704	0.220164	0.489648
O8	O	0.176692	0.981736	0.970086
N1	N	0.198378	0.993155	0.721375
N2	N	-0.042749	0.219839	0.245490
N3	N	0.094870	0.774469	0.708090
N4	N	0.332271	0.494551	0.220938
C1	C	0.207672	1.092368	0.514109
C2	C	-0.037750	1.094780	0.052568
H1	H	0.184814	1.096833	0.417195
H2	H	0.432527	0.160904	0.918849
C3	C	0.283266	0.152933	0.549021
C4	C	0.050320	1.090831	0.061072
C5	C	0.307966	0.145780	0.676113
C6	C	0.088329	0.136464	0.171450
H3	H	0.827673	0.206347	0.725037
H4	H	0.154892	0.128931	0.185172
C7	C	0.097033	0.624873	0.531220
C8	C	0.317617	0.586242	0.011947
H5	H	0.128651	0.586523	0.450783
H6	H	0.810475	0.490485	0.915974
C9	C	0.137728	0.715233	0.613140
C10	C	0.368038	0.529270	0.110344
H7	H	0.201809	0.738747	0.598718
C11	C	0.162284	1.023055	0.605926
C12	C	-0.084161	0.155363	0.150682
H8	H	0.100449	0.989070	0.582291
H9	H	0.338835	0.261688	0.081053
C13	C	0.276866	1.043073	0.750243
C14	C	0.039992	0.191714	0.266305
H10	H	0.069797	0.218418	0.355146
C15	C	0.014190	0.739924	0.726420
C16	C	0.253891	0.538052	0.246578
H11	H	0.226095	0.511066	0.334465
C17	C	-0.023395	0.639271	0.657170
C18	C	0.208853	0.615942	0.160384
H12	H	0.407687	0.567116	0.709034
H13	H	0.152625	0.663446	0.189757
C19	C	0.014942	0.586471	0.554958
C20	C	0.236374	0.629543	0.037372
C21	C	0.333582	0.224223	0.450817
C22	C	0.101032	1.039260	0.953255
C23	C	-0.031275	0.493472	0.470547
C24	C	0.187240	0.704775	0.938005
Ni3	Ni	0.635031	0.854660	0.866403
Ni4	Ni	-0.089175	0.340130	0.364969
O9	O	0.468384	0.487000	0.359578
O10	O	0.731433	0.772568	0.874188
O11	O	0.800316	0.257699	0.369165
O12	O	0.539195	0.935645	0.883180
O13	O	0.873725	0.456344	0.484316
O14	O	0.620784	0.734236	0.987250
O15	O	0.411760	0.274373	0.470785
O16	O	0.656461	0.971479	-0.010732
N5	N	0.672013	0.981950	0.738328
N6	N	0.435416	0.270080	0.222009
N7	N	0.589745	0.733319	0.741387
N8	N	0.858328	0.467429	0.231915
C25	C	0.703322	1.040962	0.519767
C26	C	0.451267	0.162997	0.017919
H14	H	0.690712	1.029280	0.419361
H15	H	-0.070016	1.050679	0.973077
C27	C	0.772681	0.117169	0.560168
C28	C	0.527178	1.103466	0.058044
C29	C	0.779932	0.141130	0.689553
C30	C	0.556029	0.135216	0.178831
H16	H	0.362502	0.198289	0.708894
H17	H	0.614473	1.096862	0.213513
C31	C	0.574585	0.634651	0.534488
C32	C	0.812936	0.519865	0.014254
H18	H	0.601087	0.607654	0.445016
H19	H	0.343369	0.604972	0.920572
C33	C	0.626441	0.691402	0.633349
C34	C	0.872538	0.460513	0.102692
C35	C	0.647802	0.984235	0.612438
C36	C	0.400929	0.231271	0.108014
C37	C	0.736457	1.062108	0.776244
C38	C	0.518028	0.238209	0.245358
H20	H	0.765599	1.045018	0.866854
C39	C	0.514462	0.680470	0.771119
C40	C	0.799041	0.555319	0.270737
H21	H	0.487489	0.704894	0.859962
H22	H	0.771382	0.541320	0.360655
C41	C	0.466162	0.609371	0.682003
C42	C	0.756465	0.639800	0.185618
H23	H	-0.085170	0.610396	0.677973
H24	H	0.714105	0.711309	0.222609
C43	C	0.490372	0.603758	0.558022
C44	C	0.755710	0.614807	0.056697
C45	C	0.830671	0.185071	0.464719
C46	C	0.575480	1.008591	0.972735
C47	C	0.433892	0.548970	0.453590
C48	C	0.700270	0.696211	0.964419
N9	N	0.338446	0.960157	0.807658
C49	C	0.361135	0.850828	0.726720
H25	H	0.319938	0.840137	0.641774
H26	H	0.423051	0.865702	0.689684
H27	H	0.360044	0.760170	0.780502
C50	C	0.344142	0.945062	0.946843
H28	H	0.408573	0.928915	0.976751
H29	H	0.318889	1.031138	-0.004718
H30	H	0.314595	0.859405	0.986178
N10	N	0.814394	0.131046	0.161371
C51	C	0.765586	0.204481	0.067103
H31	H	0.796092	0.212479	0.974956
H32	H	0.702227	0.169236	0.056164
H33	H	0.756926	0.302475	0.101770
C52	C	0.795313	0.991735	0.170229
H34	H	0.839282	0.942254	0.237238
H35	H	0.732632	0.977728	0.208349
H36	H	0.798493	0.944567	0.076417
N11	N	-0.035263	0.819472	0.804110
C53	C	-0.089293	0.903733	0.727540
H37	H	-0.070986	0.910339	0.626298
H38	H	0.831913	0.869588	0.730634
H39	H	-0.083609	1.002882	0.766085
C54	C	-0.075677	0.749259	0.905049
H40	H	0.864229	0.683195	0.861950
H41	H	-0.030770	0.692067	0.962150
H42	H	-0.105350	0.818196	0.969915
N12	N	0.456482	0.542460	0.108930
C55	C	0.495507	0.486056	-0.003502
H43	H	0.513483	0.385888	0.015723
H44	H	0.454045	0.481881	0.911850
H45	H	0.554626	0.533079	0.974909
C56	C	0.481077	0.676157	0.142486
H46	H	0.470568	0.743669	0.062277
H47	H	0.444745	0.713212	0.223436
H48	H	0.546575	0.678239	0.175628
N13	N	0.561752	0.959026	0.579799
C57	C	0.507872	1.066067	0.621268
H49	H	0.484870	1.049035	0.716395
H50	H	0.539947	0.160529	0.631610
H51	H	0.452229	1.072516	0.559342
C58	C	0.543856	0.917414	0.447940
H52	H	0.595013	0.858949	0.408509
H53	H	0.486747	0.857269	0.445483
H54	H	0.531966	1.001014	0.384905
N14	N	0.570532	0.329007	0.311611
C59	C	0.629989	0.398335	0.234151
H55	H	0.624132	0.375057	0.132157
H56	H	0.693056	0.372782	0.263423
H57	H	0.620840	0.503713	0.246917
C60	C	0.599253	0.290498	0.437991
H58	H	0.665365	0.310459	0.455716
H59	H	0.589582	0.186905	0.448725
H60	H	0.564358	0.344234	0.510509
N15	N	0.713766	0.664151	0.637534
C61	C	0.757024	0.723740	0.530715
H61	H	0.719134	0.725396	0.442105
H62	H	0.817096	0.676875	0.514017
H63	H	0.772815	0.824423	0.552716
C62	C	0.727318	0.522984	0.650555
H64	H	0.721510	0.474117	0.557544
H65	H	0.682320	0.478346	0.716399
H66	H	0.789014	0.502476	0.692559
N16	N	-0.034958	0.408635	0.058488
C63	C	-0.031148	0.378193	0.921816
H67	H	-0.082286	0.313004	0.891808
H68	H	-0.033615	0.467905	0.863486
H69	H	0.027702	0.326773	0.901713
C64	C	0.036449	0.487010	0.101415
H70	H	0.019498	0.564438	0.169953
H71	H	0.082730	0.422497	0.148392
H72	H	0.067322	0.534354	0.020859
