data_NiPyC2_relax_sc211_meta_functionalized_N-2CH3_lammps_PM
_symmetry_space_group_name_H-M	'P1'
_cell_length_a	14.397461
_cell_length_b	10.606102
_cell_length_c	10.726600
_cell_angle_alpha	90.000000
_cell_angle_beta	91.268998
_cell_angle_gamma	90.000000
_symmetry_Int_Tables_number 1

loop_
_symmetry_equiv_pos_as_xyz
'x,y,z'

loop_
_atom_site_label
_atom_site_type_symbol
_atom_site_fract_x
_atom_site_fract_y
_atom_site_fract_z
Ni1	Ni	0.191122	0.910552	0.793102
Ni2	Ni	0.429275	0.367744	0.254236
O1	O	0.054342	0.445774	0.342584
O2	O	0.290144	0.813740	0.815322
O3	O	0.328414	0.269008	0.259207
O4	O	0.095598	1.011955	0.797071
O5	O	0.392388	0.471656	0.369439
O6	O	0.161236	0.824959	0.925443
O7	O	-0.012389	0.236188	0.448888
O8	O	0.231848	1.033311	0.893083
N1	N	0.240789	0.997680	0.651399
N2	N	0.009207	0.240132	0.203741
N3	N	0.129265	0.783455	0.687305
N4	N	0.382566	0.480208	0.124363
C1	C	0.235984	1.076211	0.438579
C2	C	-0.000408	0.138123	0.002439
H1	H	0.460621	0.126673	0.847623
C3	C	0.324191	0.134784	0.456066
C4	C	0.096905	0.139470	-0.007782
C5	C	0.370416	0.113862	0.570428
C6	C	0.148811	0.188755	0.091031
H2	H	0.898905	0.937775	0.463268
H3	H	0.223555	0.181304	0.091048
C7	C	0.133250	0.579783	0.594970
C8	C	0.388265	0.683797	0.024356
C9	C	0.146234	0.657173	0.700231
C10	C	0.433122	0.581336	0.084153
H4	H	0.189940	0.621716	0.773962
H5	H	0.017201	0.461236	0.086818
C11	C	0.190116	1.030331	0.547053
C12	C	-0.042925	0.187397	0.110827
H6	H	0.115878	1.034687	0.550803
H7	H	0.372660	0.257462	-0.000656
C13	C	0.332054	1.032802	0.659216
C14	C	0.104282	0.240851	0.194959
H8	H	0.374530	1.001141	0.736782
H9	H	0.146509	0.276845	0.271276
C15	C	0.053004	0.813716	0.614344
C16	C	0.291261	0.472659	0.086055
H10	H	0.019219	0.902315	0.627343
H11	H	0.252789	0.389565	0.105648
C17	C	0.011934	0.722171	0.531860
C18	C	0.240352	0.584024	0.062939
H12	H	0.457409	0.487317	0.623350
C19	C	0.051537	0.602256	0.521699
C20	C	0.290526	0.686064	0.011428
C21	C	0.373216	0.207774	0.353628
C22	C	0.144591	1.080849	0.881354
C23	C	0.008225	0.504677	0.432590
C24	C	0.246877	0.774270	0.918003
Ni3	Ni	0.673411	0.825075	0.801857
Ni4	Ni	-0.045338	0.345621	0.326912
O9	O	0.529283	0.463294	0.279588
O10	O	0.775709	0.731998	0.816816
O11	O	0.839177	0.246950	0.337673
O12	O	0.570428	0.916208	0.811812
O13	O	0.906006	0.453819	0.444030
O14	O	0.644626	0.711703	0.920074
O15	O	0.457830	0.259068	0.372665
O16	O	0.703134	0.933041	0.921416
N5	N	0.727098	0.938469	0.677560
N6	N	0.485317	0.262040	0.131789
N7	N	0.621018	0.716981	0.672123
N8	N	0.881629	0.451498	0.196254
C25	C	0.746154	0.140255	0.576407
C26	C	0.488011	0.141186	0.940454
C27	C	0.831977	0.103921	0.524744
C28	C	0.571945	1.082292	-0.020243
C29	C	0.850690	0.975684	0.528634
C30	C	0.606407	0.113298	0.099044
H13	H	0.436487	0.157346	0.590188
C31	C	0.598405	0.672851	0.455860
C32	C	0.878677	0.534429	-0.017575
H14	H	0.429464	0.759625	-0.013507
C33	C	0.617832	0.759092	0.552055
C34	C	-0.055647	0.482775	0.090535
H15	H	0.610732	0.857507	0.533210
H16	H	0.507649	0.582095	0.094403
C35	C	0.710968	1.065566	0.675333
C36	C	0.441347	0.223551	0.023484
H17	H	0.655953	0.104752	0.728643
H18	H	0.866685	0.199826	0.111836
C37	C	0.797779	0.893546	0.604900
C38	C	0.575093	0.225515	0.151988
H19	H	0.813357	0.794453	0.605211
H20	H	0.616009	0.269189	0.225550
C39	C	0.558933	0.621244	0.699255
C40	C	0.786145	0.460473	0.192764
H21	H	0.546682	0.593775	0.794137
H22	H	0.745907	0.410840	0.259605
C41	C	0.505984	0.561395	0.601331
C42	C	0.737846	0.528066	0.098543
H23	H	-0.047750	0.745050	0.474311
H24	H	0.663420	0.538087	0.103444
C43	C	0.523175	0.592822	0.475610
C44	C	0.784645	0.577633	-0.002134
C45	C	0.883353	0.187414	0.431217
C46	C	0.614623	0.976004	0.905873
C47	C	0.478853	0.521108	0.367250
C48	C	0.732773	0.665910	0.904929
N9	N	0.205841	1.035281	0.314747
C49	C	0.112374	0.977654	0.310063
H25	H	0.060950	1.038053	0.356360
H26	H	0.086816	0.970818	0.212426
H27	H	0.112575	0.883108	0.354159
C50	C	0.275054	0.951575	0.258127
H28	H	0.304270	0.883725	0.327551
H29	H	0.245388	0.899989	0.176838
H30	H	0.332693	1.007741	0.220057
N10	N	-0.056140	0.092485	0.900492
C51	C	0.848704	0.175293	0.867951
H31	H	0.854315	0.269782	0.911202
H32	H	0.850406	0.193546	0.767347
H33	H	0.781677	0.135901	0.897295
C52	C	0.905478	0.958524	0.916753
H34	H	-0.013993	0.901661	0.930284
H35	H	0.864096	0.941904	-0.000078
H36	H	0.870614	0.922730	0.831950
N11	N	0.216094	0.536281	0.535952
C53	C	0.287351	0.638892	0.541158
H37	H	0.255709	0.733658	0.526771
H38	H	0.334404	0.636954	0.464115
H39	H	0.327186	0.639538	0.631097
C54	C	0.248993	0.419867	0.596856
H40	H	0.264090	0.434253	0.698068
H41	H	0.313229	0.386097	0.553345
H42	H	0.195917	0.344338	0.585303
N12	N	0.164528	0.607078	0.147030
C55	C	0.202325	0.629138	0.272438
H43	H	0.221543	0.536221	0.311664
H44	H	0.265504	0.688543	0.271082
H45	H	0.151541	0.674798	0.333433
C56	C	0.090395	0.696412	0.114246
H46	H	0.061790	0.678798	0.019528
H47	H	0.032187	0.685823	0.179663
H48	H	0.114689	0.793605	0.125565
N13	N	0.678905	0.199970	0.496143
C57	C	0.627029	0.295741	0.564889
H49	H	0.596213	0.361835	0.496887
H50	H	0.570842	0.255415	0.621453
H51	H	0.673282	0.348163	0.630759
C58	C	0.617148	0.099698	0.447273
H52	H	0.566237	1.067206	0.516423
H53	H	0.579511	0.129973	0.365291
H54	H	0.657824	1.016915	0.417802
N14	N	0.636409	1.015161	0.182641
C59	C	0.735138	0.983340	0.176061
H55	H	0.768378	0.989308	0.269780
H56	H	0.771160	1.051282	0.117215
H57	H	0.746539	0.888557	0.136683
C60	C	0.569849	0.910116	0.191912
H58	H	0.497050	0.944136	0.181190
H59	H	0.574792	0.867981	0.285934
H60	H	0.581788	0.837363	0.119782
N15	N	0.676261	0.620135	0.392996
C61	C	0.727087	0.715357	0.322473
H61	H	0.691318	0.726164	0.231715
H62	H	0.799417	0.685683	0.303419
H63	H	0.731814	0.806720	0.371945
C62	C	0.736898	0.554025	0.483508
H64	H	0.706646	0.540775	0.575900
H65	H	0.801942	0.606884	0.501473
H66	H	0.747506	0.456987	0.451611
N16	N	0.919329	0.527082	0.857900
C63	C	0.024583	0.456942	0.852728
H67	H	0.018111	0.361902	0.893209
H68	H	0.081226	0.508721	0.901336
H69	H	0.046655	0.442574	0.755684
C64	C	0.854308	0.480006	0.759680
H70	H	0.787966	0.443181	0.796041
H71	H	0.883262	0.403291	0.701445
H72	H	0.840037	0.558818	0.695849
