data_NiPyC2_relax_sc211_meta_functionalized_CH-S_lammps_PM
_symmetry_space_group_name_H-M	'P1'
_cell_length_a	14.113257
_cell_length_b	10.270758
_cell_length_c	10.812200
_cell_angle_alpha	90.000000
_cell_angle_beta	91.268998
_cell_angle_gamma	90.000000
_symmetry_Int_Tables_number 1

loop_
_symmetry_equiv_pos_as_xyz
'x,y,z'

loop_
_atom_site_label
_atom_site_type_symbol
_atom_site_fract_x
_atom_site_fract_y
_atom_site_fract_z
Ni1	Ni	0.199937	0.857856	0.804365
Ni2	Ni	0.449417	0.358237	0.313692
O1	O	0.053991	0.447178	0.314117
O2	O	0.300590	0.758212	0.819167
O3	O	0.351216	0.256399	0.323519
O4	O	0.099584	0.959706	0.815515
O5	O	0.410609	0.470357	0.425530
O6	O	0.163672	0.744572	0.915752
O7	O	-0.008271	0.248363	0.436684
O8	O	0.233905	0.964697	0.924202
N1	N	0.254133	0.970667	0.687160
N2	N	0.002897	0.224879	0.197123
N3	N	0.146791	0.750358	0.675307
N4	N	0.394197	0.465410	0.187150
C1	C	0.258063	1.068305	0.486049
C2	C	0.001014	0.122703	-0.003638
H1	H	0.224071	1.083786	0.397783
H2	H	0.476827	0.117990	0.911787
C3	C	0.346993	0.123760	0.513498
C4	C	0.096108	1.084886	0.012340
C5	C	0.383134	0.112684	0.634793
C6	C	0.142872	0.115434	0.125010
H3	H	-0.013844	1.057400	0.616522
C7	C	0.149472	0.564460	0.539203
C8	C	0.397323	0.583555	-0.004674
C9	C	0.197140	0.655103	0.616708
C10	C	0.444144	0.513493	0.090427
H4	H	0.271522	0.642125	0.636670
H5	H	0.020430	0.451012	0.071703
C11	C	0.210376	0.997950	0.576363
C12	C	-0.044952	0.190918	0.090502
H6	H	0.138800	0.966107	0.557510
H7	H	0.405368	0.272845	0.049937
C13	C	0.341700	1.021969	0.714146
C14	C	0.094427	0.185694	0.215728
H8	H	0.377480	0.996275	0.799857
H9	H	0.133674	0.223018	0.294912
C15	C	0.051411	0.760645	0.650862
C16	C	0.301248	0.500363	0.200229
H10	H	0.006978	0.810078	0.713838
H11	H	0.262709	0.464901	0.278254
C17	C	0.008924	0.695712	0.551532
C18	C	0.256619	0.587959	0.118208
H12	H	0.430099	0.600477	0.631947
C19	C	0.057165	0.595312	0.494947
C20	C	0.301929	0.620876	0.007846
C21	C	0.398366	0.196896	0.416167
C22	C	0.146992	1.018620	0.908797
C23	C	0.007260	0.516575	0.399073
C24	C	0.251895	0.693789	0.905316
Ni3	Ni	0.694149	0.852579	0.814199
Ni4	Ni	-0.046858	0.347049	0.311585
O9	O	0.547648	0.460522	0.326707
O10	O	0.791727	0.745643	0.816622
O11	O	0.836435	0.249352	0.334210
O12	O	0.597051	0.954768	0.834472
O13	O	0.903103	0.467389	0.417745
O14	O	0.657252	0.731411	0.919130
O15	O	0.485193	0.251074	0.434780
O16	O	0.733918	0.948701	0.940770
N5	N	0.749198	0.973218	0.702958
N6	N	0.506824	0.245321	0.195451
N7	N	0.636148	0.759376	0.682454
N8	N	0.880323	0.445895	0.180544
C25	C	0.742609	0.153585	0.560176
C26	C	0.511927	0.139593	-0.001893
H13	H	-0.035822	1.106179	0.909254
C27	C	0.840430	0.138941	0.539171
C28	C	0.601228	1.086775	0.025511
C29	C	0.892639	1.059435	0.619489
C30	C	0.641302	1.108867	0.144063
C31	C	0.626281	0.681320	0.472827
C32	C	0.884886	0.544180	-0.022018
H14	H	0.434582	0.606189	0.912004
C33	C	0.677744	0.741413	0.570599
C34	C	0.930579	0.482040	0.079363
H15	H	0.748280	0.778220	0.555325
H16	H	0.517289	0.486594	0.080239
C35	C	0.696653	1.055414	0.628898
C36	C	0.467466	0.221711	0.081245
H17	H	0.620464	1.047099	0.624526
H18	H	0.866664	0.225369	0.073730
C37	C	0.845522	0.986276	0.708141
C38	C	0.593944	0.193210	0.225643
H19	H	0.885395	0.942226	0.783060
H20	H	0.627197	0.217443	0.312856
C39	C	0.545279	0.717821	0.699665
C40	C	0.785793	0.473704	0.185810
H21	H	0.509223	0.744040	0.782958
H22	H	0.746205	0.444693	0.265560
C41	C	0.498636	0.640872	0.611941
C42	C	0.739274	0.540754	0.090059
H23	H	0.918287	0.714569	0.527567
H24	H	0.664681	0.560150	0.096011
C43	C	0.540144	0.618235	0.498780
C44	C	0.789187	0.583689	-0.011708
C45	C	0.886660	0.197576	0.429550
C46	C	0.647527	1.006021	0.928707
C47	C	0.496583	0.525058	0.410139
C48	C	0.742382	0.675283	0.897976
C49	C	0.447484	0.212288	0.687103
S1	S	0.410170	0.333990	0.729785
H25	H	0.518989	0.185259	0.713457
C50	C	0.246249	0.113509	0.133434
S2	S	0.296862	1.000316	0.177162
H26	H	0.281974	0.204518	0.125014
C51	C	0.183401	0.428709	0.536987
S3	S	0.155824	0.339211	0.631811
H27	H	0.237890	0.400793	0.473866
C52	C	0.167645	0.652046	0.154728
S4	S	0.166939	0.739596	0.258207
H28	H	0.103670	0.638761	0.099716
C53	C	0.698133	0.283645	0.546339
S5	S	0.675076	0.358224	0.654073
H29	H	0.701643	0.333719	0.458710
C54	C	0.731816	1.046437	0.183805
S6	S	0.741629	0.984358	0.301973
H30	H	0.790537	1.043380	0.122560
C55	C	0.655823	0.700557	0.343805
S7	S	0.589816	0.751782	0.252214
H31	H	0.730557	0.695913	0.322992
C56	C	0.933474	0.549806	0.858881
S8	S	0.908136	0.459792	0.761972
H32	H	0.017477	0.600469	0.854829
