data_NiPyC2_relax_sc211_ortho_functionalized_CH-S_lammps_PM
_symmetry_space_group_name_H-M	'P1'
_cell_length_a	15.153335
_cell_length_b	10.206423
_cell_length_c	10.570274
_cell_angle_alpha	90.000000
_cell_angle_beta	91.268998
_cell_angle_gamma	90.000000
_symmetry_Int_Tables_number 1

loop_
_symmetry_equiv_pos_as_xyz
'x,y,z'

loop_
_atom_site_label
_atom_site_type_symbol
_atom_site_fract_x
_atom_site_fract_y
_atom_site_fract_z
Ni1	Ni	0.164043	0.868357	0.839176
Ni2	Ni	0.414313	0.349524	0.331869
O1	O	0.003598	0.487211	0.346192
O2	O	0.256523	0.767518	0.850666
O3	O	0.320694	0.248228	0.337845
O4	O	0.072141	0.969817	0.850431
O5	O	0.382266	0.462007	0.452224
O6	O	0.133462	0.756930	0.960703
O7	O	-0.043225	0.267513	0.456261
O8	O	0.199116	0.982068	0.958706
N1	N	0.213546	0.979805	0.711590
N2	N	-0.019720	0.269049	0.211589
N3	N	0.109688	0.754633	0.715844
N4	N	0.363165	0.464104	0.203712
C1	C	0.231445	1.049623	0.495280
C2	C	-0.010805	0.174681	0.004799
H1	H	0.207120	1.051681	0.398272
H2	H	0.440783	1.105128	0.919539
C3	C	0.314696	1.103227	0.525462
C4	C	0.072470	0.120744	0.033315
C5	C	0.346876	1.091127	0.648861
C6	C	0.110179	0.146278	0.151811
H3	H	0.896800	0.174770	0.687821
H4	H	0.176619	1.112662	0.173929
C7	C	0.097001	0.652713	0.511806
C8	C	0.334774	0.539105	-0.010438
H5	H	0.127103	0.625156	0.423683
H6	H	0.864063	0.602887	0.908778
C9	C	0.149202	0.710796	0.608048
C10	C	0.392911	0.481443	0.082089
C11	C	0.176742	1.002477	0.593124
C12	C	-0.060827	0.229262	0.101913
H7	H	0.355310	0.205609	0.091960
C13	C	0.296513	1.027167	0.739440
C14	C	0.068809	0.235699	0.232950
H8	H	0.325378	1.010148	0.831572
C15	C	0.024647	0.716440	0.739786
C16	C	0.285292	0.523341	0.237170
H9	H	-0.002372	0.734726	0.831282
H10	H	0.259192	0.507718	0.329654
C17	C	-0.028011	0.653519	0.647790
C18	C	0.237533	0.603511	0.153821
H11	H	0.415567	0.580855	0.673873
H12	H	0.182267	0.659429	0.187970
C19	C	0.007657	0.623142	0.531930
C20	C	0.260092	0.609456	0.028060
C21	C	0.363140	0.183417	0.430886
C22	C	0.117712	1.035505	0.939556
C23	C	-0.041658	0.547097	0.434196
C24	C	0.213805	0.702485	0.939895
Ni3	Ni	0.659822	0.869733	0.823654
Ni4	Ni	0.904559	0.375092	0.332732
O9	O	0.506259	0.449627	0.346341
O10	O	0.744690	0.757689	0.837854
O11	O	0.818179	0.261741	0.338917
O12	O	0.574050	0.983939	0.827196
O13	O	0.864357	0.484688	0.451938
O14	O	0.621805	0.762277	0.945625
O15	O	0.443501	0.237367	0.454469
O16	O	0.695213	0.981127	0.945301
N5	N	0.720409	0.972929	0.700147
N6	N	0.468704	0.236581	0.210156
N7	N	0.602474	0.761138	0.698975
N8	N	0.848231	0.479492	0.203890
C25	C	0.748824	1.034525	0.485216
C26	C	0.473986	0.131266	0.006860
H13	H	0.733781	1.021034	0.385464
H14	H	-0.036348	0.175620	0.908525
C27	C	0.820004	0.114206	0.524577
C28	C	0.566386	0.114619	0.020155
C29	C	0.841829	0.116156	0.653206
C30	C	0.608013	0.158980	0.129751
H15	H	0.411422	0.129207	0.675273
H16	H	0.678311	0.143046	0.144269
C31	C	0.603765	0.622436	0.515538
C32	C	0.835042	0.579385	-0.001428
H17	H	0.637001	0.592378	0.431286
H18	H	0.351602	0.538936	0.890567
C33	C	0.648662	0.699812	0.606117
C34	C	0.887591	0.521922	0.095075
H19	H	0.718668	0.717271	0.597271
C35	C	0.691904	0.982803	0.576895
C36	C	0.425590	0.190145	0.104549
H20	H	0.627177	0.948308	0.548650
H21	H	0.854787	0.251706	0.084443
C37	C	0.803944	1.021200	0.731880
C38	C	0.557341	0.205744	0.229527
C39	C	0.514965	0.725417	0.717046
C40	C	0.761741	0.512146	0.224787
H22	H	0.731546	0.481830	0.310804
C41	C	0.476922	0.624113	0.645869
C42	C	0.712691	0.588298	0.138585
H23	H	0.889067	0.627364	0.668218
H24	H	0.648690	0.625622	0.164038
C43	C	0.515499	0.586137	0.534935
C44	C	0.747736	0.617469	0.022160
C45	C	0.863934	0.203665	0.432623
C46	C	0.617015	1.043343	0.921385
C47	C	0.464448	0.513265	0.436047
C48	C	0.699842	0.699265	0.927169
C49	C	0.079594	1.005132	0.574502
S1	S	0.038563	0.958523	0.458913
H25	H	0.040147	1.057775	0.641298
C50	C	0.128360	0.323476	0.305797
S2	S	0.139949	0.311700	0.440580
H26	H	0.136569	0.313651	0.407572
C51	C	0.245425	0.695345	0.604027
S3	S	0.294215	0.747788	0.500502
H27	H	0.275645	0.621822	0.664260
C52	C	0.488780	0.470238	0.055373
S4	S	0.519296	0.442733	0.930041
H28	H	0.536716	0.480061	0.131202
C53	C	0.867734	0.936174	0.800779
S5	S	0.872877	0.931415	0.936788
H29	H	0.870849	0.933500	0.903368
C54	C	0.591989	0.181443	0.357852
S6	S	0.638028	0.281517	0.428310
H30	H	0.572698	1.092244	0.404886
C55	C	0.454418	0.810726	0.786448
S7	S	0.440637	0.792955	0.919303
H31	H	0.444275	0.796562	0.886797
C56	C	0.000041	0.532167	0.087789
S8	S	0.045491	0.478373	0.981653
H32	H	0.034156	0.601955	0.148424
