data_NiPyC2_relax_sc211_ortho_functionalized_CH-CH2_lammps_PM
_symmetry_space_group_name_H-M	'P1'
_cell_length_a	15.313151
_cell_length_b	10.517614
_cell_length_c	10.384116
_cell_angle_alpha	90.000000
_cell_angle_beta	91.268998
_cell_angle_gamma	90.000000
_symmetry_Int_Tables_number 1

loop_
_symmetry_equiv_pos_as_xyz
'x,y,z'

loop_
_atom_site_label
_atom_site_type_symbol
_atom_site_fract_x
_atom_site_fract_y
_atom_site_fract_z
Ni1	Ni	0.162137	0.852863	0.852942
Ni2	Ni	0.409139	0.334292	0.347494
O1	O	0.009751	0.435465	0.364975
O2	O	0.254648	0.754575	0.860435
O3	O	0.318621	0.234374	0.355360
O4	O	0.073267	0.950448	0.865884
O5	O	0.379464	0.441180	0.470813
O6	O	0.134925	0.742606	0.976442
O7	O	-0.056405	0.231232	0.473611
O8	O	0.196952	0.962680	0.977704
N1	N	0.210401	0.964782	0.723290
N2	N	-0.034377	0.228535	0.225144
N3	N	0.104908	0.742580	0.727904
N4	N	0.355250	0.445575	0.221111
C1	C	0.233610	1.035919	0.505246
C2	C	-0.023160	0.113461	0.025550
H1	H	0.211764	1.039342	0.405519
H2	H	0.434172	0.110207	0.923030
C3	C	0.312312	1.094925	0.542787
C4	C	0.065100	1.085807	0.052974
C5	C	0.335701	0.095390	0.672252
C6	C	0.100341	0.121031	0.171117
H3	H	0.854896	0.185066	0.712519
H4	H	0.167584	0.098801	0.196151
C7	C	0.096787	0.637710	0.522803
C8	C	0.335935	0.532646	0.007693
H5	H	0.120001	0.637893	0.425281
H6	H	0.850181	0.552141	0.908565
C9	C	0.146266	0.697985	0.621692
C10	C	0.387745	0.467143	0.101158
H7	H	0.213633	0.723194	0.605605
C11	C	0.179252	0.981449	0.598398
C12	C	-0.073289	0.183186	0.112917
H8	H	0.348676	0.215594	0.095078
C13	C	0.287562	1.023559	0.759199
C14	C	0.048334	0.186218	0.258571
H9	H	0.315418	1.007367	0.853625
H10	H	0.076143	0.209187	0.352000
C15	C	0.018776	0.703160	0.748418
C16	C	0.276333	0.501194	0.251827
C17	C	-0.019258	0.608202	0.670135
C18	C	0.244916	0.604109	0.177843
H11	H	0.399880	0.578278	0.677144
H12	H	0.193635	0.664126	0.214354
C19	C	0.015601	0.583090	0.550861
C20	C	0.265635	0.608723	0.048043
C21	C	0.361310	0.171565	0.447734
C22	C	0.115672	1.013158	0.957299
C23	C	-0.032250	0.501015	0.454660
C24	C	0.215059	0.691487	0.954107
Ni3	Ni	0.647908	0.845917	0.847184
Ni4	Ni	0.900250	0.342482	0.349483
O9	O	0.500068	0.434282	0.359327
O10	O	0.742139	0.751678	0.858731
O11	O	0.805829	0.249576	0.357375
O12	O	0.556591	0.941741	0.856394
O13	O	0.870929	0.453734	0.471208
O14	O	0.620851	0.736300	0.970923
O15	O	0.441703	0.223740	0.470157
O16	O	0.678273	0.956652	0.971395
N5	N	0.695901	0.959153	0.715892
N6	N	0.459769	0.226587	0.221892
N7	N	0.594363	0.731239	0.723864
N8	N	0.850733	0.456887	0.220068
C25	C	0.736138	1.011950	0.496980
C26	C	0.460505	0.117318	0.019635
H13	H	0.726427	0.998411	0.394306
H14	H	-0.051946	1.086387	0.933325
C27	C	0.798056	0.100992	0.542059
C28	C	0.542271	1.063606	0.051832
C29	C	0.807345	0.118049	0.673997
C30	C	0.571469	1.073152	0.178168
H15	H	0.392454	0.147945	0.705969
H16	H	0.625701	1.016057	0.212973
C31	C	0.599586	0.586496	0.544834
C32	C	0.829806	0.547389	0.007556
H17	H	0.634938	0.550615	0.464071
H18	H	0.353530	0.530077	0.907368
C33	C	0.642347	0.665632	0.636028
C34	C	0.884394	0.487958	0.101574
H19	H	0.711443	0.684317	0.627613
H20	H	0.451523	0.431967	0.076369
C35	C	0.677813	0.954104	0.584202
C36	C	0.415637	0.186831	0.113218
C37	C	0.763722	1.036804	0.757870
C38	C	0.541566	0.175428	0.250371
H21	H	0.789591	1.028865	0.854559
C39	C	0.507243	0.694982	0.741667
C40	C	0.770438	0.505732	0.251487
H22	H	0.742651	0.481505	0.342362
C41	C	0.467834	0.603193	0.663299
C42	C	0.720803	0.580534	0.165546
H23	H	-0.083021	0.570763	0.692985
H24	H	0.658833	0.619167	0.195288
C43	C	0.509976	0.559524	0.556714
C44	C	0.749942	0.601415	0.042039
C45	C	0.847011	0.183595	0.450106
C46	C	0.596001	1.003469	0.951076
C47	C	0.459501	0.493354	0.453225
C48	C	0.701503	0.687403	0.950616
C49	C	0.088234	0.955226	0.561221
C50	C	0.023295	1.017522	0.614132
H25	H	0.074232	0.893933	0.479280
H26	H	0.035532	0.095845	0.680282
H27	H	-0.042400	0.987705	0.591891
C51	C	0.826154	0.228157	0.067043
C52	C	0.754130	0.175218	0.107422
H28	H	0.822325	0.285211	0.980044
H29	H	0.757026	0.099392	0.178073
H30	H	0.692332	0.206621	0.066491
C53	C	-0.043694	0.785882	0.815772
C54	C	-0.053056	0.781880	0.943271
H31	H	0.899125	0.847891	0.758956
H32	H	-0.017247	0.714473	0.001888
H33	H	0.885834	0.844969	0.988839
C55	C	0.210006	0.423124	0.315328
C56	C	0.202094	0.420221	0.443155
H34	H	0.174742	0.354631	0.257243
H35	H	0.234219	0.490223	0.503999
H36	H	0.159860	0.350541	0.487035
C57	C	0.592224	0.911931	0.531796
C58	C	0.518087	0.962072	0.572419
H37	H	0.590163	0.847976	0.449660
H38	H	0.518985	1.037431	0.643509
H39	H	0.456330	0.929351	0.531607
C59	C	0.608894	0.254571	0.314514
C60	C	0.624454	0.249514	0.441375
H40	H	0.640624	0.327073	0.258381
H41	H	0.594136	0.178645	0.499995
H42	H	0.668327	0.317630	0.487015
C61	C	0.447032	0.771971	0.817954
C62	C	0.441071	0.758750	0.945349
H43	H	0.407730	0.842821	0.768731
H44	H	0.474133	0.681888	-0.004444
H45	H	0.400295	0.823160	-0.000746
C63	C	-0.014559	0.443633	0.061589
C64	C	0.057611	0.498778	0.104863
H46	H	-0.010608	0.381665	0.978311
H47	H	0.055076	0.574898	0.175242
H48	H	0.119243	0.469146	0.066165
