data_NiPyC2_relax_sc211_meta_functionalized_CH-CH2_lammps_PM
_symmetry_space_group_name_H-M	'P1'
_cell_length_a	13.713913
_cell_length_b	10.303876
_cell_length_c	11.160517
_cell_angle_alpha	90.000000
_cell_angle_beta	91.268998
_cell_angle_gamma	90.000000
_symmetry_Int_Tables_number 1

loop_
_symmetry_equiv_pos_as_xyz
'x,y,z'

loop_
_atom_site_label
_atom_site_type_symbol
_atom_site_fract_x
_atom_site_fract_y
_atom_site_fract_z
Ni1	Ni	0.196944	0.861565	0.802930
Ni2	Ni	0.447391	0.351328	0.308294
O1	O	0.059601	0.444803	0.331998
O2	O	0.301280	0.758641	0.817746
O3	O	0.341658	0.253387	0.313950
O4	O	0.093182	0.962222	0.815488
O5	O	0.412374	0.455830	0.423391
O6	O	0.163680	0.749890	0.917736
O7	O	-0.004508	0.224669	0.414254
O8	O	0.235018	0.971615	0.915325
N1	N	0.249410	0.973905	0.680794
N2	N	0.013376	0.244943	0.184028
N3	N	0.139979	0.751207	0.681989
N4	N	0.393131	0.467569	0.192053
C1	C	0.235555	0.114685	0.507018
C2	C	0.005662	0.162535	-0.018110
H1	H	0.189975	0.160849	0.440355
C3	C	0.338092	0.126661	0.503988
C4	C	0.099243	1.105671	-0.002489
C5	C	0.391613	1.070646	0.597220
C6	C	0.149911	0.128064	0.105799
H2	H	-0.022622	0.110270	0.615612
H3	H	0.221884	1.087717	0.121124
C7	C	0.126103	0.668907	0.479727
C8	C	0.400629	0.564892	-0.003250
H4	H	0.152947	0.668022	0.389155
H5	H	-0.033898	0.670483	-0.024949
C9	C	0.171501	0.748548	0.566079
C10	C	0.442580	0.493175	0.091997
H6	H	0.231843	0.806171	0.539168
H7	H	0.036791	0.503182	0.110246
C11	C	0.192054	1.041550	0.600024
C12	C	0.942687	0.218802	0.082253
H8	H	0.115206	1.024013	0.596160
H9	H	0.369022	0.195403	0.106176
C13	C	0.347603	0.976011	0.667058
C14	C	0.108556	0.206707	0.193694
H10	H	0.391484	0.913661	0.718592
H11	H	0.153213	0.240522	0.267412
C15	C	0.054944	0.690557	0.707786
C16	C	0.300128	0.514569	0.203791
H12	H	0.018304	0.715413	0.789036
H13	H	0.259764	0.491832	0.283227
C17	C	0.013288	0.598082	0.628979
C18	C	0.255535	0.591471	0.112810
H14	H	0.183296	0.630349	0.126103
C19	C	0.048085	0.589524	0.510804
C20	C	0.304869	0.617996	0.006395
C21	C	0.390050	0.188884	0.401274
C22	C	0.145445	1.025109	0.901317
C23	C	0.006356	0.497901	0.419514
C24	C	0.253473	0.696439	0.905637
Ni3	Ni	0.697954	0.857880	0.808488
Ni4	Ni	0.939549	0.343063	0.309081
O9	O	0.552530	0.449030	0.327851
O10	O	0.801995	0.758194	0.833008
O11	O	0.837138	0.237920	0.311307
O12	O	0.593958	0.961370	0.812997
O13	O	0.900024	0.441737	0.426636
O14	O	0.661972	0.760660	0.929101
O15	O	0.481814	0.236676	0.415224
O16	O	0.733881	0.980427	0.913443
N5	N	0.752554	0.954178	0.677946
N6	N	0.503535	0.245693	0.186482
N7	N	0.642947	0.735023	0.695494
N8	N	0.884828	0.463202	0.195256
C25	C	0.749880	1.026565	0.470077
C26	C	0.489226	0.130898	-0.000052
C27	C	0.842172	1.085097	0.487853
C28	C	0.592329	0.112110	-0.005289
C29	C	0.891727	1.061542	0.596255
C30	C	0.648488	0.167767	0.087356
H15	H	0.726109	0.151405	0.092267
C31	C	0.655588	0.582945	0.531143
C32	C	0.901170	0.617325	0.033847
H16	H	0.701168	0.528255	0.471581
C33	C	0.699357	0.666478	0.617988
C34	C	0.941995	0.525692	0.114250
H17	H	0.776080	0.687732	0.613714
H18	H	0.516848	0.459612	0.086188
C35	C	0.706303	0.961782	0.567735
C36	C	0.447284	0.186085	0.102407
H19	H	0.640210	0.908448	0.551330
H20	H	0.869596	0.255743	0.074303
C37	C	0.848820	0.985852	0.685525
C38	C	0.603383	0.236922	0.180434
H21	H	0.890908	0.960181	0.764799
H22	H	0.648319	0.273222	0.253329
C39	C	0.544212	0.733430	0.679338
C40	C	0.788478	0.495363	0.202747
H23	H	0.501541	0.790444	0.735683
H24	H	0.746402	0.455795	0.274663
C41	C	0.497891	0.648812	0.598008
C42	C	0.745708	0.588852	0.125297
C43	C	0.553172	0.577651	0.518073
C44	C	0.800118	0.638656	0.030156
C45	C	0.889013	0.169725	0.394656
C46	C	0.642932	1.031204	0.897123
C47	C	0.503394	0.506266	0.415843
C48	C	0.751540	0.706870	0.924288
C49	C	0.490605	0.115626	0.628989
C50	C	0.509216	0.238577	0.660132
H25	H	0.547887	1.047732	0.629354
H26	H	0.451893	0.310571	0.656710
H27	H	0.582960	0.267669	0.685116
C51	C	-0.031892	0.194831	0.860360
C52	C	0.854749	0.214922	0.837687
H28	H	0.019696	0.211769	0.789730
H29	H	0.801310	0.204602	0.906265
H30	H	0.829928	0.245182	0.749111
C53	C	0.914927	0.515340	0.671757
C54	C	0.909351	0.485852	0.787170
H31	H	0.851890	0.497201	0.615137
H32	H	-0.007615	0.485600	0.844478
H33	H	0.839067	0.464230	0.824905
C55	C	0.466162	0.602512	0.902841
C56	C	0.527312	0.513340	0.857862
H34	H	0.486017	0.703388	0.901228
H35	H	0.513325	0.410645	0.869100
H36	H	0.596357	0.541586	0.821665
C57	C	0.708186	1.009115	0.347406
C58	C	0.611912	0.996091	0.327874
H37	H	0.756886	0.998944	0.272553
H38	H	0.560828	1.007786	0.399609
H39	H	0.583889	0.972440	0.238942
C59	C	0.424698	1.106826	0.898933
C60	C	0.362600	0.200481	0.861283
H40	H	0.409034	1.007204	0.880483
H41	H	0.370199	0.299166	0.893799
H42	H	0.301675	0.178530	0.801979
C61	C	0.391057	0.645591	0.588537
C62	C	0.340648	0.553291	0.644933
H43	H	0.358070	0.693010	0.511504
H44	H	0.374758	0.493339	0.712827
H45	H	0.266484	0.531091	0.617085
C63	C	0.654175	0.651885	0.160026
C64	C	0.646509	0.707631	0.266836
H46	H	0.592766	0.654441	0.098450
H47	H	0.709839	0.717413	0.326292
H48	H	0.576067	0.742001	0.295527
