data_NiPyC2_relax_sc211_ortho_functionalized_CH2-NH2_lammps_PM
_symmetry_space_group_name_H-M	'P1'
_cell_length_a	15.315582
_cell_length_b	10.599911
_cell_length_c	10.321050
_cell_angle_alpha	90.000000
_cell_angle_beta	91.268998
_cell_angle_gamma	90.000000
_symmetry_Int_Tables_number 1

loop_
_symmetry_equiv_pos_as_xyz
'x,y,z'

loop_
_atom_site_label
_atom_site_type_symbol
_atom_site_fract_x
_atom_site_fract_y
_atom_site_fract_z
Ni1	Ni	0.171223	0.871325	0.875194
Ni2	Ni	0.395805	0.320939	0.334673
O1	O	0.015458	0.445831	0.391416
O2	O	0.268531	0.786923	0.893861
O3	O	0.310134	0.213232	0.345835
O4	O	0.075014	0.958442	0.880841
O5	O	0.360893	0.430943	0.456500
O6	O	0.145629	0.770115	0.005251
O7	O	-0.053867	0.240708	0.501919
O8	O	0.198251	0.993178	0.990287
N1	N	0.216119	0.973706	0.740088
N2	N	-0.037344	0.242254	0.244994
N3	N	0.123610	0.746919	0.754455
N4	N	0.340942	0.422881	0.202921
C1	C	0.225824	1.037160	0.517613
C2	C	-0.013454	0.176140	0.023465
H1	H	0.195068	1.050433	0.423800
H2	H	0.448417	0.128760	0.891528
C3	C	0.311293	1.081056	0.539857
C4	C	0.062839	0.109760	0.062184
C5	C	0.348842	1.066707	0.661895
C6	C	0.081090	0.099569	0.192996
H3	H	0.854969	0.176703	0.747867
H4	H	0.134912	1.041471	0.226646
C7	C	0.104578	0.656349	0.540720
C8	C	0.356163	0.588042	0.044219
H5	H	0.126458	0.650215	0.441908
H6	H	0.881207	0.576637	0.944971
C9	C	0.159413	0.712614	0.637913
C10	C	0.390932	0.485252	0.114693
H7	H	-0.020661	0.478629	0.129616
C11	C	0.175632	0.994216	0.622027
C12	C	-0.068931	0.230830	0.118627
H8	H	0.354442	0.235627	0.054452
C13	C	0.300025	1.015537	0.761384
C14	C	0.034404	0.171477	0.281564
H9	H	0.331458	0.999461	0.854259
H10	H	0.059942	0.177656	0.377957
C15	C	0.043300	0.698361	0.785621
C16	C	0.255021	0.460556	0.217602
H11	H	0.014997	0.722264	0.877208
C17	C	-0.005273	0.622483	0.698734
C18	C	0.226081	0.575394	0.167854
H12	H	0.487136	0.434203	0.687667
H13	H	0.162081	0.610767	0.192646
C19	C	0.024979	0.600136	0.574980
C20	C	0.271912	0.632354	0.071178
C21	C	0.355491	0.156946	0.440122
C22	C	0.114651	1.033556	0.967209
C23	C	-0.023538	0.511691	0.483988
C24	C	0.228770	0.728957	0.990074
Ni3	Ni	0.652069	0.818399	0.840894
Ni4	Ni	-0.081459	0.355849	0.378308
O9	O	0.482828	0.430818	0.346648
O10	O	0.748484	0.734324	0.859097
O11	O	0.809498	0.264135	0.388615
O12	O	0.552087	0.901714	0.843869
O13	O	0.880650	0.465641	0.504261
O14	O	0.624905	0.701241	0.958979
O15	O	0.431772	0.217923	0.461566
O16	O	0.669618	0.926256	0.972048
N5	N	0.705009	0.943838	0.728124
N6	N	0.449374	0.210572	0.207175
N7	N	0.613000	0.701436	0.697927
N8	N	0.854137	0.475351	0.251995
C25	C	0.721369	1.049556	0.525829
C26	C	0.462267	0.118567	0.993553
H14	H	0.704564	1.046065	0.423978
H15	H	-0.034196	0.174241	0.923262
C27	C	0.797027	0.113155	0.569338
C28	C	0.531000	1.039763	0.037452
C29	C	0.813927	0.107713	0.700730
C30	C	0.550471	1.040641	0.169429
H16	H	0.416026	0.094174	0.680054
H17	H	0.601362	0.979046	0.207769
C31	C	0.522270	0.691205	0.501836
C32	C	0.851483	0.567944	0.038309
H18	H	0.506344	0.729310	0.406737
H19	H	0.395097	0.633744	0.971515
C33	C	0.598735	0.736767	0.569896
C34	C	0.897454	0.507748	0.141898
H20	H	0.458028	0.457370	0.100852
C35	C	0.666424	0.992706	0.618937
C36	C	0.415310	0.191902	0.084261
H21	H	0.597776	0.977820	0.597661
C37	C	0.784448	1.000310	0.768126
C38	C	0.525077	0.146911	0.241820
C39	C	0.576519	0.586872	0.734338
C40	C	0.773794	0.534858	0.274784
H22	H	0.602073	0.536070	0.816980
C41	C	0.511156	0.525579	0.657749
C42	C	0.738679	0.619815	0.182407
H23	H	-0.067494	0.584435	0.727346
H24	H	0.678570	0.669752	0.201224
C43	C	0.484022	0.575834	0.538557
C44	C	0.766145	0.613103	0.057590
C45	C	0.848706	0.196320	0.479617
C46	C	0.586640	0.966216	0.944347
C47	C	0.438016	0.491763	0.437643
C48	C	0.711089	0.666214	0.948657
C49	C	0.080345	1.020518	0.616649
N9	N	0.067489	0.138989	0.685196
H25	H	0.054720	1.026358	0.515941
H26	H	0.042429	0.943116	0.659552
H27	H	0.002578	0.149236	0.707692
H28	H	0.089037	0.215419	0.630652
C50	C	0.818281	0.238431	0.088567
N10	N	0.796374	0.306790	0.968766
H29	H	0.783010	0.284551	0.166031
H30	H	0.790206	0.142246	0.084272
H31	H	0.748647	0.258207	0.914678
H32	H	0.849981	0.329193	0.912408
C51	C	0.256429	0.693433	0.628544
N11	N	0.282695	0.587852	0.711350
H33	H	0.274761	0.673432	0.526795
H34	H	0.293064	0.779012	0.656993
H35	H	0.268489	0.502453	0.664819
H36	H	0.349280	0.593776	0.733944
C52	C	0.187972	0.374642	0.271437
N12	N	0.194743	0.372678	0.412861
H37	H	0.121972	0.404986	0.238968
H38	H	0.194474	0.280405	0.227804
H39	H	0.190068	0.463075	0.450764
H40	H	0.148861	0.313676	0.453666
C53	C	0.856635	0.924291	0.832389
N13	N	0.844778	0.903315	0.970634
H41	H	-0.067007	0.975404	0.821018
H42	H	0.867604	0.835477	0.778578
H43	H	0.865347	0.981886	0.022743
H44	H	0.884099	0.827894	0.000809
C54	C	0.597268	0.221190	0.298823
N14	N	0.595701	0.229429	0.440411
H45	H	0.661380	0.182873	0.268715
H46	H	0.591097	0.313684	0.250676
H47	H	0.658192	0.247251	0.473738
H48	H	0.566203	0.310188	0.474431
C55	C	0.675715	0.763638	0.484576
N15	N	0.760511	0.766977	0.552847
H49	H	0.677686	0.693907	0.409772
H50	H	0.663636	0.847661	0.424242
H51	H	0.772925	0.682888	0.602443
H52	H	0.809821	0.783263	0.486401
C56	C	0.706326	0.473596	0.356500
N16	N	0.719112	0.484258	0.496611
H53	H	0.705198	0.380507	0.323815
H54	H	0.639470	0.507568	0.330152
H55	H	0.739105	0.399814	0.539080
H56	H	0.659301	0.501796	0.537219
