data_NiPyC2_relax_sc211_meta_functionalized_CH2-NH2_lammps_PM
_symmetry_space_group_name_H-M	'P1'
_cell_length_a	14.365182
_cell_length_b	9.295939
_cell_length_c	11.803011
_cell_angle_alpha	90.000000
_cell_angle_beta	91.268998
_cell_angle_gamma	90.000000
_symmetry_Int_Tables_number 1

loop_
_symmetry_equiv_pos_as_xyz
'x,y,z'

loop_
_atom_site_label
_atom_site_type_symbol
_atom_site_fract_x
_atom_site_fract_y
_atom_site_fract_z
Ni1	Ni	0.187862	0.907575	0.783065
Ni2	Ni	0.428882	0.394739	0.281957
O1	O	0.039447	0.542722	0.286071
O2	O	0.287104	0.796612	0.798599
O3	O	0.327860	0.288202	0.291907
O4	O	0.089564	1.018701	0.794763
O5	O	0.398613	0.515392	0.388083
O6	O	0.156717	0.787961	0.892584
O7	O	-0.028302	0.303712	0.362686
O8	O	0.222768	1.032656	0.890483
N1	N	0.238238	1.026628	0.664854
N2	N	-0.005432	0.321040	0.144639
N3	N	0.132851	0.783666	0.668293
N4	N	0.377074	0.521504	0.173147
C1	C	0.227918	1.110248	0.468951
C2	C	-0.002824	1.120113	0.018691
C3	C	0.324704	1.143854	0.471685
C4	C	0.085745	1.162712	-0.024297
C5	C	0.375435	1.108043	0.569323
C6	C	0.125472	0.286570	0.021589
H1	H	0.191427	0.324621	-0.007199
C7	C	0.140465	0.660176	0.487603
C8	C	0.395701	0.655865	0.003241
H2	H	0.182667	0.618068	0.420500
C9	C	0.184488	0.727928	0.582721
C10	C	0.432625	0.583798	0.097952
H3	H	0.256738	0.756141	0.578686
H4	H	0.011343	0.648210	0.089808
C11	C	0.185106	1.064081	0.571429
C12	C	-0.030438	0.182216	0.121658
H5	H	0.112056	1.038930	0.570459
H6	H	0.349766	0.244974	0.076081
C13	C	0.332928	1.035194	0.657888
C14	C	0.076306	0.369065	0.099541
H7	H	0.376331	0.978592	0.717345
H8	H	0.105677	0.468308	0.125810
C15	C	0.038138	0.789935	0.653427
C16	C	0.285039	0.558815	0.175421
H9	H	-0.001712	0.860856	0.704335
H10	H	0.242772	0.523649	0.244723
C17	C	-0.008339	0.723564	0.562053
C18	C	0.244798	0.643676	0.088270
H11	H	0.173851	0.680609	0.094983
C19	C	0.042367	0.659744	0.476101
C20	C	0.296777	0.680590	-0.006418
C21	C	0.374311	0.215170	0.374090
C22	C	0.135075	1.085818	0.879602
C23	C	-0.007097	0.602003	0.371114
C24	C	0.244287	0.734367	0.886466
Ni3	Ni	0.672504	0.955287	0.758823
Ni4	Ni	0.921080	0.434240	0.263152
O9	O	0.531086	0.501343	0.296155
O10	O	0.775687	0.848866	0.776908
O11	O	0.820164	0.324863	0.267453
O12	O	0.569642	1.059888	0.770559
O13	O	0.887401	0.546488	0.374040
O14	O	0.643106	0.831828	0.865712
O15	O	0.462493	0.267197	0.386278
O16	O	0.702329	1.078589	0.866390
N5	N	0.722183	1.084086	0.644967
N6	N	0.477505	0.274876	0.164873
N7	N	0.622175	0.826445	0.639957
N8	N	0.867564	0.567965	0.154218
C25	C	0.715680	0.179039	0.453983
C26	C	0.467515	0.216719	-0.034687
H12	H	0.677681	0.182635	0.374860
C27	C	0.811743	0.210568	0.458453
C28	C	0.564412	0.183913	-0.036854
C29	C	0.857061	0.199568	0.564447
C30	C	0.615301	0.200818	0.065147
H13	H	0.449064	1.128310	0.574694
H14	H	0.689165	0.178426	0.068818
C31	C	0.617493	0.730250	0.448001
C32	C	0.877858	0.681176	-0.027976
H15	H	0.647410	0.727193	0.364607
C33	C	0.660801	0.813819	0.534707
C34	C	0.919339	0.636068	0.076038
H16	H	0.718848	0.878230	0.512595
H17	H	0.507049	0.571135	0.107757
C35	C	0.670372	1.130687	0.552963
C36	C	0.424827	0.241312	0.071285
H18	H	0.597218	1.107161	0.547905
H19	H	0.894143	1.133506	0.164974
C37	C	0.815875	1.113207	0.648051
C38	C	0.571806	0.252987	0.162807
H20	H	0.859791	1.057712	0.706799
H21	H	0.614728	0.288081	0.232974
C39	C	0.534789	0.770955	0.652721
C40	C	0.772725	0.589521	0.150865
H22	H	0.489238	0.824082	0.707618
H23	H	0.730825	0.550372	0.219315
C41	C	0.498511	0.664847	0.577338
C42	C	0.728647	0.665026	0.059488
H24	H	0.655492	0.690429	0.063774
C43	C	0.535011	0.655290	0.469108
C44	C	0.780134	0.707150	-0.035315
C45	C	0.864336	0.255604	0.353661
C46	C	0.614352	1.128697	0.857568
C47	C	0.485156	0.571636	0.376701
C48	C	0.730556	0.779331	0.860678
C49	C	0.172142	1.111292	0.358256
N9	N	0.098015	1.003679	0.358463
H25	H	0.217364	1.087410	0.285388
H26	H	0.141871	0.220145	0.345756
H27	H	0.126871	0.902158	0.344539
H28	H	0.049558	1.025897	0.293691
C50	C	0.899748	1.095371	-0.061035
N10	N	0.860841	0.237688	0.911016
H29	H	0.846668	1.027987	-0.018988
H30	H	0.921225	1.035100	0.864822
H31	H	0.817021	0.273764	-0.025414
H32	H	0.825794	0.242181	0.833519
C51	C	0.869938	0.742068	0.550572
N11	N	0.817918	0.618928	0.594641
H33	H	0.848583	0.767870	0.461923
H34	H	0.850527	0.838345	0.598262
H35	H	0.859323	0.546205	0.640145
H36	H	0.779736	0.566215	0.530792
C52	C	0.465896	0.719809	0.928576
N12	N	0.538905	0.612220	0.904127
H37	H	0.434790	0.764554	0.853602
H38	H	0.498131	0.811751	-0.025034
H39	H	0.521070	0.505571	0.921415
H40	H	0.562328	0.616049	0.821711
C53	C	-0.034277	0.280347	0.587904
N13	N	-0.014145	0.308061	0.706471
H41	H	0.024019	0.221697	0.550481
H42	H	-0.038192	0.387130	0.547260
H43	H	-0.004576	0.211057	0.747223
H44	H	0.049375	0.362553	0.711785
C54	C	0.407539	0.208547	0.860788
N14	N	0.333632	0.316517	0.855339
H45	H	0.377582	1.100556	0.865220
H46	H	0.448105	0.223232	0.783389
H47	H	0.329207	0.387262	0.923474
H48	H	0.270562	0.277837	0.822366
C55	C	0.420198	0.564379	0.609258
N15	N	0.401312	0.561695	0.728161
H49	H	0.356360	0.596078	0.563070
H50	H	0.437875	0.452669	0.582621
H51	H	0.330498	0.540733	0.737910
H52	H	0.440146	0.477611	0.762742
C56	C	-0.045148	0.683349	0.871068
N16	N	0.024528	0.568924	0.876847
H53	H	0.894337	0.668816	0.793507
H54	H	-0.010670	0.789027	0.873635
H55	H	-0.008587	0.469365	0.882847
H56	H	0.065772	0.571798	0.805329
