data_NiPyC2_relax_sc211_meta_functionalized_P-2CH3_lammps_PM
_symmetry_space_group_name_H-M	'P1'
_cell_length_a	15.585093
_cell_length_b	10.326536
_cell_length_c	10.683039
_cell_angle_alpha	90.000000
_cell_angle_beta	91.268998
_cell_angle_gamma	90.000000
_symmetry_Int_Tables_number 1

loop_
_symmetry_equiv_pos_as_xyz
'x,y,z'

loop_
_atom_site_label
_atom_site_type_symbol
_atom_site_fract_x
_atom_site_fract_y
_atom_site_fract_z
Ni1	Ni	0.156128	0.875750	0.847129
Ni2	Ni	0.400387	0.316909	0.300443
O1	O	0.001823	0.456499	0.380349
O2	O	0.243840	0.767968	0.858353
O3	O	0.301492	0.232303	0.314695
O4	O	0.071818	0.979728	0.860295
O5	O	0.381411	0.427882	0.421671
O6	O	0.125771	0.770701	0.968286
O7	O	-0.070640	0.246751	0.473723
O8	O	0.194699	0.989364	0.966236
N1	N	0.205535	0.978750	0.714792
N2	N	-0.036411	0.247024	0.233893
N3	N	0.096113	0.768404	0.727216
N4	N	0.356487	0.441916	0.175276
C1	C	0.202677	1.079297	0.508614
C2	C	-0.024296	0.146932	0.029992
H1	H	0.168102	1.096641	0.422388
H2	H	0.473822	0.893364	0.075806
C3	C	0.291815	1.102577	0.515935
C4	C	0.063559	0.115363	0.052016
C5	C	0.333194	1.074726	0.630311
C6	C	0.098890	0.148275	0.169163
H3	H	-0.082908	1.011714	0.600451
H4	H	0.165283	0.126162	0.191279
C7	C	0.083359	0.689001	0.518154
C8	C	0.330170	0.663495	0.103284
C9	C	0.134501	0.722402	0.623726
C10	C	0.381565	0.570367	0.170514
H5	H	0.201393	0.744400	0.611248
H6	H	-0.044416	0.429957	0.085593
C11	C	0.160005	1.019199	0.610564
C12	C	-0.075112	0.197399	0.128684
H7	H	0.093809	0.991843	0.598954
H8	H	0.387482	1.021030	0.225904
C13	C	0.292962	0.990652	0.714938
C14	C	0.047556	0.212655	0.259319
H9	H	0.330291	0.952871	0.793271
H10	H	0.075439	0.236910	0.349160
C15	C	0.007358	0.764690	0.731281
C16	C	0.286283	0.407071	0.103378
H11	H	-0.025036	0.805519	0.810391
H12	H	0.269727	0.305658	0.095380
C17	C	-0.042217	0.701118	0.636305
C18	C	0.221800	0.500303	0.076997
C19	C	-0.000316	0.640872	0.539202
C20	C	0.248978	0.627421	0.052081
C21	C	0.340769	0.162878	0.406516
C22	C	0.114258	1.042276	0.951208
C23	C	-0.041070	0.526762	0.463102
C24	C	0.202532	0.710982	0.952266
Ni3	Ni	0.650925	0.825298	0.810035
Ni4	Ni	-0.091470	0.363829	0.353731
O9	O	0.501117	0.400281	0.316234
O10	O	0.743550	0.730527	0.826695
O11	O	0.797357	0.270352	0.351157
O12	O	0.557344	0.921228	0.818162
O13	O	0.861713	0.480319	0.471636
O14	O	0.622960	0.713675	0.930912
O15	O	0.424953	0.197300	0.415203
O16	O	0.678141	0.939543	0.930700
N5	N	0.700754	0.936290	0.685611
N6	N	0.437173	0.204227	0.168004
N7	N	0.602281	0.710633	0.682746
N8	N	0.852638	0.483242	0.223339
C25	C	0.703709	1.048241	0.485093
C26	C	0.482457	0.997014	0.082327
C27	C	0.789013	1.090346	0.513287
C28	C	0.545129	1.058884	0.009862
C29	C	0.833336	1.020662	0.604070
C30	C	0.543657	0.194270	0.008773
C31	C	0.601466	0.577727	0.494482
C32	C	0.837085	0.541650	0.004426
H13	H	0.635104	0.540319	0.415280
H14	H	0.353517	0.761082	0.091211
C33	C	0.645011	0.661315	0.582502
C34	C	0.881529	0.478531	0.104021
H15	H	0.709934	0.692049	0.565081
H16	H	0.442547	0.600466	0.210333
C35	C	0.658310	0.978963	0.580008
C36	C	0.432059	1.070862	0.167066
H17	H	0.593555	0.946049	0.561603
H18	H	0.841207	0.202467	0.117868
C37	C	0.788241	0.951360	0.694096
C38	C	0.486410	0.263068	0.082532
H19	H	0.823633	0.911274	0.772613
H20	H	0.489201	0.367238	0.081773
C39	C	0.516054	0.688628	0.690328
C40	C	0.783261	0.562118	0.247683
H21	H	0.481525	0.734767	0.763687
H22	H	0.762945	0.576115	0.341841
C41	C	0.473201	0.596081	0.614964
C42	C	0.734353	0.621264	0.150292
H23	H	0.873541	0.705975	0.636183
H24	H	0.676974	0.674498	0.172482
C43	C	0.513826	0.546050	0.509042
C44	C	0.758422	0.607516	0.026107
C45	C	0.834199	0.200257	0.443658
C46	C	0.596253	0.984531	0.912557
C47	C	0.464168	0.465186	0.410802
C48	C	0.705274	0.668740	0.919592
P1	P	0.398885	0.195600	0.697598
C49	C	0.511465	0.190810	0.661363
H25	H	0.533568	0.288427	0.633755
H26	H	0.519826	0.125361	0.581566
H27	H	0.549721	0.155881	0.741668
C50	C	0.361739	0.224119	0.854001
H28	H	0.394941	0.307852	0.893415
H29	H	0.372977	0.137500	0.912825
H30	H	0.291909	0.245146	0.849884
P2	P	-0.069217	0.137101	0.874859
C51	C	0.808089	0.191188	0.869164
H31	H	0.770763	0.121713	0.923594
H32	H	0.807847	0.285460	0.915782
H33	H	0.782651	0.198777	0.772146
C52	C	-0.000985	0.203060	0.754469
H34	H	0.012716	0.128527	0.685921
H35	H	-0.033285	0.280633	0.702910
H36	H	0.061499	0.236075	0.793998
P3	P	0.095821	0.793665	0.388754
C53	C	0.204377	0.829219	0.340492
H37	H	0.229543	0.745070	0.289861
H38	H	0.247125	0.845737	0.422965
H39	H	0.204324	0.914396	0.277482
C54	C	0.009386	0.907185	0.356511
H40	H	-0.052085	0.864085	0.385883
H41	H	0.005418	0.926870	0.254604
H42	H	0.020285	0.998253	0.408750
P4	P	0.129623	0.483708	0.168649
C55	C	0.179018	0.471578	0.324479
H43	H	0.241361	0.521849	0.327967
H44	H	0.187102	0.369894	0.351394
H45	H	0.141685	0.515947	0.396084
C56	C	0.059502	0.622778	0.155752
H46	H	0.025883	0.626690	0.064956
H47	H	0.098353	0.709863	0.163934
H48	H	0.010841	0.623897	0.228500
P5	P	0.674305	1.016585	0.324237
C57	C	0.593156	0.890771	0.315151
H49	H	0.530706	0.928545	0.346849
H50	H	0.613471	0.808821	0.374823
H51	H	0.587789	0.853979	0.218240
C58	C	0.766718	0.947996	0.247568
H52	H	0.822145	1.014067	0.256176
H53	H	0.751285	0.931371	0.147297
H54	H	0.783921	0.854641	0.292805
P6	P	0.629758	0.282439	0.951704
C59	C	0.583967	0.422573	0.874748
H55	H	0.567625	0.494778	0.946527
H56	H	0.525481	0.391907	0.824279
H57	H	0.625907	0.465105	0.804770
C60	C	0.678710	0.322930	0.100870
H58	H	0.681938	0.235977	0.160885
H59	H	0.641236	0.398955	0.148256
H60	H	0.743498	0.354202	0.085731
P7	P	0.385040	0.511954	0.682742
C61	C	0.373448	0.552257	0.843964
H61	H	0.426979	0.518274	0.903432
H62	H	0.370911	0.657671	0.854496
H63	H	0.314019	0.504425	0.872104
C62	C	0.279392	0.507024	0.609601
H64	H	0.266294	0.408695	0.572181
H65	H	0.230748	0.525125	0.681370
H66	H	0.275936	0.579967	0.533899
P8	P	0.881112	0.532817	0.852181
C63	C	0.009335	0.488533	0.845280
H67	H	0.050496	0.568658	0.877122
H68	H	0.023472	0.405447	0.907156
H69	H	0.027230	0.468361	0.747614
C64	C	0.809252	0.465586	0.733639
H70	H	0.785552	0.542262	0.671203
H71	H	0.840419	0.390906	0.677986
H72	H	0.754045	0.422062	0.777990
