data_NiPyC2_relax_sc211_ortho_functionalized_P-2CH3_lammps_PM
_symmetry_space_group_name_H-M	'P1'
_cell_length_a	16.817921
_cell_length_b	10.515963
_cell_length_c	10.018803
_cell_angle_alpha	90.000000
_cell_angle_beta	91.268998
_cell_angle_gamma	90.000000
_symmetry_Int_Tables_number 1

loop_
_symmetry_equiv_pos_as_xyz
'x,y,z'

loop_
_atom_site_label
_atom_site_type_symbol
_atom_site_fract_x
_atom_site_fract_y
_atom_site_fract_z
Ni1	Ni	0.132812	0.835366	0.874570
Ni2	Ni	0.385575	0.319781	0.363993
O1	O	-0.011330	0.410867	0.392649
O2	O	0.217700	0.740492	0.883651
O3	O	0.297665	0.229815	0.382591
O4	O	0.047407	0.931937	0.886583
O5	O	0.370018	0.431014	0.497152
O6	O	0.105247	0.709658	0.987564
O7	O	-0.091964	0.231668	0.520155
O8	O	0.152763	0.928908	0.017864
N1	N	0.185041	0.961186	0.754103
N2	N	-0.059383	0.204152	0.270906
N3	N	0.087148	0.739747	0.727807
N4	N	0.333180	0.440947	0.238447
C1	C	0.229730	0.998986	0.525610
C2	C	-0.038278	0.116737	0.052109
H1	H	0.218412	0.986919	0.419758
H2	H	0.464191	0.176925	0.896312
C3	C	0.294650	1.071999	0.569783
C4	C	0.033590	1.059665	0.092000
C5	C	0.307076	1.083153	0.706408
C6	C	0.055531	1.066274	0.225010
H3	H	-0.117357	1.046190	0.708638
H4	H	0.108998	1.018176	0.259971
C7	C	0.091251	0.588641	0.547730
C8	C	0.304834	0.533008	0.023294
H5	H	0.126050	0.539044	0.475938
H6	H	0.757111	0.440465	0.929925
C9	C	0.129640	0.655584	0.652893
C10	C	0.361279	0.492695	0.122437
H7	H	0.191747	0.640108	0.672835
C11	C	0.175885	0.945384	0.617199
C12	C	-0.087518	0.177686	0.146843
H8	H	0.124624	0.897850	0.575900
H9	H	0.368642	0.276532	0.051469
C13	C	0.251132	1.034608	0.798150
C14	C	0.011611	0.141487	0.313893
C15	C	0.005765	0.753498	0.697737
C16	C	0.260191	0.484793	0.279626
H10	H	0.242710	0.467866	0.380670
C17	C	-0.023799	0.711218	0.574485
C18	C	0.209427	0.558577	0.194933
H11	H	0.431390	0.504206	0.737161
H12	H	0.156731	0.602110	0.234687
C19	C	0.008684	0.601646	0.527712
C20	C	0.229298	0.577922	0.062014
C21	C	0.337180	0.159586	0.473198
C22	C	0.080846	0.983058	0.993823
C23	C	-0.041067	0.492020	0.476305
C24	C	0.181138	0.665728	0.968817
Ni3	Ni	0.625752	0.822170	0.862373
Ni4	Ni	-0.103387	0.338232	0.383144
O9	O	0.473056	0.406505	0.366983
O10	O	0.709701	0.728163	0.888749
O11	O	0.788722	0.260627	0.394232
O12	O	0.541417	0.920793	0.856592
O13	O	-0.120335	0.465701	0.499898
O14	O	0.595118	0.707428	0.988485
O15	O	0.413036	0.203340	0.489165
O16	O	0.641360	0.931919	0.995747
N5	N	0.681427	0.934371	0.735921
N6	N	0.425019	0.203446	0.227651
N7	N	0.582774	0.710089	0.725217
N8	N	0.846745	0.458880	0.235674
C25	C	0.707333	1.019869	0.513239
C26	C	0.466868	0.155158	1.001832
H13	H	0.692587	1.020135	0.408203
H14	H	-0.057218	0.110542	0.949052
C27	C	0.779934	1.073558	0.559198
C28	C	0.517445	1.057411	0.050624
C29	C	0.809978	1.023349	0.677161
C30	C	0.513457	1.028246	0.184813
H15	H	0.356203	0.140868	0.743082
H16	H	0.550206	0.952133	0.225159
C31	C	0.579956	0.575206	0.529804
C32	C	0.766869	0.471466	0.031263
H17	H	0.604690	0.549913	0.434599
H18	H	0.323693	0.546664	0.921627
C33	C	0.622113	0.660017	0.618590
C34	C	0.839210	0.432767	0.101729
H19	H	0.681377	0.690969	0.596022
C35	C	0.658197	0.949685	0.603965
C36	C	0.416624	0.221743	0.091842
H20	H	0.601645	0.912478	0.568618
H21	H	0.839440	0.201219	0.121401
C37	C	0.757589	0.977029	0.773235
C38	C	0.487293	0.123888	0.270034
C39	C	0.504795	0.669827	0.743421
C40	C	0.807540	0.568813	0.276453
H22	H	0.830812	0.624487	0.358451
C41	C	0.482413	0.551999	0.695997
C42	C	0.740227	0.619206	0.205400
H23	H	-0.082238	0.740750	0.538814
H24	H	0.710502	0.702341	0.244127
C43	C	0.504348	0.526924	0.568282
C44	C	0.719201	0.573622	0.078718
C45	C	0.819267	0.193010	0.496030
C46	C	0.570468	0.983267	0.959678
C47	C	0.446083	0.469963	0.469186
C48	C	0.671821	0.660234	0.977721
P1	P	0.260277	0.100489	0.964048
C49	C	0.292057	1.003598	0.109535
H25	H	0.279589	0.901087	0.095910
H26	H	0.262651	1.038973	0.200062
H27	H	0.356455	1.005043	0.125732
C50	C	0.199731	0.239970	0.992930
H28	H	0.223891	0.320386	0.935258
H29	H	0.200553	0.263293	0.100915
H30	H	0.137957	0.223146	0.957081
P2	P	0.059202	0.166480	0.477099
C51	C	0.131149	0.289491	0.500545
H31	H	0.139540	0.337358	0.403763
H32	H	0.108872	0.351990	0.579647
H33	H	0.187170	0.250363	0.540298
C52	C	0.030200	0.102343	0.637049
H34	H	0.008805	1.003560	0.625549
H35	H	0.080321	0.112065	0.708485
H36	H	-0.014087	0.160587	0.685424
P3	P	-0.068634	0.753734	0.825107
C53	C	-0.062684	0.748776	1.006734
H37	H	0.865278	0.723139	0.044498
H38	H	-0.045230	0.840936	0.048704
H39	H	-0.021893	0.677038	0.045602
C54	C	0.843754	0.643888	0.764791
H40	H	0.801115	0.693568	0.697593
H41	H	0.816155	0.601952	0.849246
H42	H	-0.116308	0.564248	0.712571
P4	P	0.453350	0.575522	0.124936
C55	C	0.539099	0.475909	0.113664
H43	H	0.521744	0.380807	0.141974
H44	H	0.585199	0.510077	0.185052
H45	H	0.559673	0.471939	1.009480
C56	C	0.459400	0.703432	0.246574
H46	H	0.432096	0.790421	0.203661
H47	H	0.522467	0.722077	0.274761
H48	H	0.425503	0.678654	0.335762
P5	P	0.776186	1.043157	0.933562
C57	C	0.783950	0.954273	0.091998
H49	H	0.765480	0.855042	0.078324
H50	H	0.745831	0.999043	0.167361
H51	H	0.844668	0.951287	0.134123
C58	C	0.719719	0.189077	0.929669
H52	H	0.722236	0.234492	0.028009
H53	H	0.657128	0.172899	0.899277
H54	H	0.745475	0.250197	0.852005
P6	P	0.566710	0.189106	0.370868
C59	C	0.573502	0.212341	0.551771
H55	H	0.537700	0.292925	0.584022
H56	H	0.635683	0.232871	0.583520
H57	H	0.550300	0.127756	0.603792
C60	C	0.642733	0.249359	0.263830
H58	H	0.690405	0.178393	0.256766
H59	H	0.663609	0.343815	0.298942
H60	H	0.619091	0.256289	0.160967
P7	P	0.425697	0.783222	0.738646
C61	C	0.397420	0.820034	0.906721
H61	H	0.447553	0.803081	0.976599
H62	H	0.382028	0.921248	0.909991
H63	H	0.349053	0.760239	0.939502
C62	C	0.343111	0.731323	0.633842
H64	H	0.327690	0.631454	0.656291
H65	H	0.291828	0.791093	0.655320
H66	H	0.358255	0.741228	0.527410
P8	P	-0.057661	0.432048	1.006425
C63	C	0.035941	0.435669	0.098571
H67	H	0.034269	0.511616	0.174852
H68	H	0.048586	0.343344	0.146624
H69	H	0.083565	0.455009	0.027154
C64	C	-0.048440	0.354696	0.846981
H70	H	-0.027477	0.423593	0.772278
H71	H	-0.000520	0.283563	0.857790
H72	H	-0.105498	0.310796	0.814332
