data_NiPyC2_relax_sc211_meta_functionalized_S-CH3_lammps_PM
_symmetry_space_group_name_H-M	'P1'
_cell_length_a	13.695092
_cell_length_b	10.392059
_cell_length_c	11.008917
_cell_angle_alpha	90.000000
_cell_angle_beta	91.268998
_cell_angle_gamma	90.000000
_symmetry_Int_Tables_number 1

loop_
_symmetry_equiv_pos_as_xyz
'x,y,z'

loop_
_atom_site_label
_atom_site_type_symbol
_atom_site_fract_x
_atom_site_fract_y
_atom_site_fract_z
Ni1	Ni	0.181621	0.870383	0.788528
Ni2	Ni	0.438508	0.364578	0.291225
O1	O	0.037100	0.429062	0.323053
O2	O	0.289311	0.776118	0.801843
O3	O	0.336060	0.259398	0.294107
O4	O	0.074760	0.965073	0.800605
O5	O	0.396531	0.466256	0.406161
O6	O	0.151237	0.762185	0.903315
O7	O	-0.024599	0.220301	0.432599
O8	O	0.216706	0.979979	0.898380
N1	N	0.233269	0.982163	0.667184
N2	N	-0.008517	0.210741	0.195381
N3	N	0.125566	0.756232	0.670170
N4	N	0.384630	0.479730	0.168318
C1	C	0.232181	1.069028	0.464450
C2	C	-0.022174	1.075465	0.016777
C3	C	0.328008	0.120637	0.482676
C4	C	0.077628	1.092228	-0.006586
C5	C	0.374850	1.095567	0.593905
C6	C	0.134038	0.163243	0.076510
H1	H	-0.030922	1.080431	0.634024
C7	C	0.133264	0.637344	0.483121
C8	C	0.393537	0.650240	0.017844
H2	H	0.856296	0.482044	0.882061
C9	C	0.175205	0.720762	0.570815
C10	C	0.438950	0.568984	0.106540
H3	H	0.247350	0.758615	0.558883
H4	H	0.945087	0.361574	0.039162
C11	C	0.182537	1.016112	0.564491
C12	C	0.917998	0.135544	0.118381
H5	H	0.107674	0.985339	0.553136
H6	H	0.421099	0.333723	0.012731
C13	C	0.327687	1.024224	0.683757
C14	C	0.089689	0.221365	0.176816
H7	H	0.367774	0.999840	0.766301
H8	H	0.135173	0.266893	0.244956
C15	C	0.033405	0.708597	0.687899
C16	C	0.287344	0.467821	0.140369
H9	H	-0.005188	0.734591	0.768859
H10	H	0.242731	0.408339	0.195080
C17	C	-0.011378	0.623700	0.603727
C18	C	0.241494	0.541156	0.049694
C19	C	0.037670	0.586332	0.499160
C20	C	0.293640	0.634119	-0.012988
C21	C	0.382441	0.195672	0.384835
C22	C	0.125463	1.027775	0.888104
C23	C	-0.011675	0.494178	0.408299
C24	C	0.242617	0.714912	0.890940
Ni3	Ni	0.677737	0.839400	0.823739
Ni4	Ni	0.917545	0.324056	0.313649
O9	O	0.540065	0.465704	0.316511
O10	O	0.777393	0.732640	0.835360
O11	O	0.815475	0.222086	0.330201
O12	O	0.577867	0.945305	0.835832
O13	O	0.881950	0.438903	0.425703
O14	O	0.636380	0.729576	0.932900
O15	O	0.471790	0.249556	0.405755
O16	O	0.719551	0.942703	0.941041
N5	N	0.734751	0.949014	0.707472
N6	N	0.500743	0.262814	0.168562
N7	N	0.620283	0.736878	0.697590
N8	N	0.858077	0.426459	0.186008
C25	C	0.721962	1.047492	0.512639
C26	C	0.529331	0.197304	0.961048
H11	H	0.915128	1.015997	0.958404
C27	C	0.820982	1.087965	0.520160
C28	C	0.596419	0.106094	0.003272
C29	C	0.875804	1.051649	0.623524
C30	C	0.630670	0.116548	0.121843
H12	H	0.449974	0.123738	0.608235
H13	H	0.693263	1.061743	0.150866
C31	C	0.631499	0.625695	0.506834
C32	C	0.835458	0.490895	-0.023919
H14	H	0.672582	0.608457	0.426677
H15	H	0.435030	0.726774	-0.022731
C33	C	0.674486	0.696877	0.601971
C34	C	0.884090	0.417881	0.066023
H16	H	0.750219	0.725008	0.596450
H17	H	0.516511	0.577578	0.124441
C35	C	0.678465	1.002564	0.617917
C36	C	0.477811	0.271312	0.046033
H18	H	0.600590	0.986830	0.617560
H19	H	0.840342	0.132887	0.127379
C37	C	0.832774	0.973541	0.712109
C38	C	0.585581	0.202086	0.201700
H20	H	0.877608	0.929963	0.781879
H21	H	0.620108	0.223609	0.288309
C39	C	0.524989	0.698715	0.705841
C40	C	0.778542	0.498943	0.213274
H22	H	0.482610	0.731004	0.781220
H23	H	0.744581	0.487385	0.299417
C41	C	0.481797	0.616861	0.617889
C42	C	0.744770	0.593872	0.132839
H24	H	0.898716	0.586345	0.621372
C43	C	0.533653	0.586332	0.512177
C44	C	0.766417	0.582035	0.009655
C45	C	0.867762	0.165285	0.420333
C46	C	0.633041	1.002602	0.923106
C47	C	0.486434	0.520149	0.403904
C48	C	0.723096	0.670798	0.917745
S1	S	0.194646	1.018922	0.320476
C49	C	0.080205	0.938062	0.311648
H25	H	0.059219	0.923694	0.215054
H26	H	0.085343	0.843617	0.356300
H27	H	0.023438	0.995347	0.355922
S2	S	0.260980	0.179554	0.057486
C50	C	0.332790	1.038928	0.092144
H28	H	0.285368	0.954059	0.104949
H29	H	0.381576	1.017921	0.015638
H30	H	0.378125	1.053218	0.175192
S3	S	0.200572	0.602419	0.355060
C51	C	0.283120	0.725693	0.309654
H31	H	0.356468	0.685708	0.296861
H32	H	0.256687	0.768600	0.223158
H33	H	0.292527	0.800796	0.379190
S4	S	0.115871	0.522490	0.024637
C52	C	0.051959	0.650008	0.096108
H34	H	-0.002035	0.690580	0.030244
H35	H	0.103564	0.726658	0.124551
H36	H	0.014268	0.614832	0.177045
S5	S	0.675410	0.985936	0.376845
C53	C	0.551245	0.934930	0.375110
H37	H	0.509091	0.993335	0.438668
H38	H	0.519403	0.946079	0.282304
H39	H	0.546624	0.832722	0.401361
S6	S	0.531105	0.244918	0.808681
C54	C	0.623896	0.361642	0.787629
H40	H	0.630280	0.382182	0.689267
H41	H	0.604381	0.451253	0.836044
H42	H	0.694631	0.324111	0.823641
S7	S	0.361959	0.561715	0.638683
C55	C	0.347240	0.440887	0.749760
H43	H	0.356329	0.345411	0.707031
H44	H	0.400886	0.456415	0.824933
H45	H	0.272437	0.446943	0.785822
S8	S	0.719845	0.745791	0.191866
C56	C	0.834820	0.825355	0.201971
H46	H	0.866621	0.830028	0.110538
H47	H	0.884060	0.771859	0.265331
H48	H	0.827185	0.924689	0.235332
