data_NiPyC2_relax_sc211_ortho_functionalized_S-CH3_lammps_PM
_symmetry_space_group_name_H-M	'P1'
_cell_length_a	14.698054
_cell_length_b	11.617931
_cell_length_c	9.449603
_cell_angle_alpha	90.000000
_cell_angle_beta	91.268998
_cell_angle_gamma	90.000000
_symmetry_Int_Tables_number 1

loop_
_symmetry_equiv_pos_as_xyz
'x,y,z'

loop_
_atom_site_label
_atom_site_type_symbol
_atom_site_fract_x
_atom_site_fract_y
_atom_site_fract_z
Ni1	Ni	0.196779	0.779178	0.907989
Ni2	Ni	0.440275	0.279728	0.420890
O1	O	0.033124	0.379686	0.404001
O2	O	0.294493	0.691817	0.916245
O3	O	0.340629	0.195290	0.427556
O4	O	0.100006	0.866832	0.923093
O5	O	0.416348	0.372938	0.563354
O6	O	0.169173	0.679851	1.043340
O7	O	-0.038486	0.204394	0.535981
O8	O	0.232165	0.882171	1.042028
N1	N	0.247244	0.878022	0.770089
N2	N	0.001946	0.179325	0.267720
N3	N	0.138972	0.676187	0.769776
N4	N	0.387628	0.389506	0.291250
C1	C	0.257479	0.986389	0.555954
C2	C	0.029330	0.087490	1.041476
H1	H	0.238885	0.988420	0.446979
H2	H	0.429450	0.983523	1.035782
C3	C	0.341069	1.034874	0.601514
C4	C	0.106792	1.031225	0.095586
C5	C	0.380740	0.993197	0.724469
C6	C	0.139908	0.066995	0.225702
H3	H	0.886897	0.116774	0.791571
H4	H	0.211276	0.055432	0.249251
C7	C	0.107674	0.596821	0.537443
C8	C	0.382954	0.494843	0.070275
H5	H	0.116849	0.604942	0.426185
H6	H	0.900767	0.642911	0.075122
C9	C	0.167537	0.655298	0.634355
C10	C	0.426449	0.416282	0.164663
C11	C	0.205618	0.919527	0.649729
C12	C	-0.025473	0.156072	0.130805
H7	H	0.362134	0.142895	0.172491
C13	C	0.336311	0.907907	0.799915
C14	C	0.084874	0.133717	0.316599
H8	H	0.372532	0.866178	0.885475
C15	C	0.058428	0.626482	0.811802
C16	C	0.309783	0.448371	0.331098
H9	H	0.029485	0.651545	0.910812
C17	C	0.012241	0.543327	0.728265
C18	C	0.269049	0.528704	0.241194
H10	H	0.425562	0.567190	0.724132
H11	H	0.209421	0.573118	0.272942
C19	C	0.033007	0.532383	0.586499
C20	C	0.301795	0.549702	0.109746
C21	C	0.385508	0.129375	0.520547
C22	C	0.146877	0.927342	1.020203
C23	C	-0.014609	0.445310	0.489601
C24	C	0.252567	0.633358	1.015853
Ni3	Ni	0.670637	0.793918	0.889470
Ni4	Ni	-0.061601	0.290427	0.385135
O9	O	0.539731	0.362916	0.434619
O10	O	0.767334	0.706262	0.900791
O11	O	0.827331	0.198226	0.393060
O12	O	0.571916	0.879313	0.902044
O13	O	0.884151	0.402805	0.501703
O14	O	0.635429	0.679038	1.005498
O15	O	0.470343	0.170764	0.547281
O16	O	0.695138	0.881448	1.041552
N5	N	0.727698	0.908277	0.771932
N6	N	0.488162	0.186472	0.273735
N7	N	0.623803	0.708738	0.729461
N8	N	0.877438	0.377507	0.220434
C25	C	0.762297	0.980002	0.540344
C26	C	0.473275	0.040626	0.093964
H12	H	0.753165	0.969338	0.426981
H13	H	0.012318	0.079588	0.931139
C27	C	0.828383	0.055956	0.595482
C28	C	0.568544	1.024898	0.094059
C29	C	0.844516	0.052434	0.741357
C30	C	0.621597	0.100072	0.173585
H14	H	0.447705	1.022067	0.758902
H15	H	0.694909	0.090295	0.174447
C31	C	0.638635	0.529817	0.606873
C32	C	0.866836	0.565655	0.109445
H16	H	0.676188	0.477852	0.533717
H17	H	0.412677	0.513065	0.969109
C33	C	0.674595	0.637886	0.645033
C34	C	-0.066116	0.473645	0.167379
H18	H	0.490513	0.377940	0.136430
C35	C	0.700665	0.927876	0.634618
C36	C	0.434649	0.127499	0.178425
H19	H	0.636024	0.895676	0.594862
H20	H	0.896880	0.189815	0.089275
C37	C	0.807020	0.961737	0.821046
C38	C	0.580790	0.163300	0.281319
C39	C	0.531307	0.692847	0.728246
C40	C	0.787069	0.360160	0.181970
H21	H	0.486910	0.757847	0.768051
H22	H	0.755820	0.277999	0.198693
C41	C	0.494336	0.586187	0.696550
C42	C	0.733069	0.448347	0.119846
H23	H	-0.045060	0.497255	0.770917
H24	H	0.662261	0.431600	0.093102
C43	C	0.545624	0.506598	0.625607
C44	C	0.772095	0.553441	0.084525
C45	C	0.868569	0.150662	0.506398
C46	C	0.611032	0.926921	1.015246
C47	C	0.499499	0.416850	0.539524
C48	C	0.721997	0.637980	0.987478
S1	S	0.088478	0.895297	0.613829
C49	C	0.059813	0.867728	0.433386
H25	H	0.028234	0.782408	0.420802
H26	H	0.120884	0.869621	0.367654
H27	H	0.009787	0.933161	0.397453
S2	S	0.137650	0.182901	0.475349
C50	C	0.118255	0.173566	0.663202
H28	H	0.182225	0.153015	0.721798
H29	H	0.066539	0.109393	0.690448
H30	H	0.093445	0.257657	0.701722
S3	S	0.283334	0.673846	0.591528
C51	C	0.315688	0.743656	0.432749
H31	H	0.362091	0.686848	0.374323
H32	H	0.255281	0.765573	0.366138
H33	H	0.356110	0.821267	0.458455
S4	S	0.241484	0.400489	0.469915
C52	C	0.252191	0.399225	0.660091
H34	H	0.185157	0.416070	0.705688
H35	H	0.299729	0.463916	0.702836
H36	H	0.276111	0.313603	0.696531
S5	S	0.883489	0.886518	0.934505
C53	C	0.873936	0.897311	0.122094
H37	H	-0.042893	0.895486	0.170681
H38	H	0.838891	0.978023	0.151312
H39	H	0.836699	0.822226	0.164097
S6	S	0.636217	0.152205	0.447194
C54	C	0.666271	0.238474	0.598495
H40	H	0.695329	0.182749	0.682283
H41	H	0.718162	0.302710	0.570948
H42	H	0.607172	0.275702	0.650700
S7	S	0.745140	0.699058	0.518492
C55	C	0.857407	0.718922	0.580179
H43	H	0.900795	0.675763	0.503320
H44	H	0.864797	0.682415	0.687299
H45	H	0.875723	0.810829	0.584026
S8	S	0.051507	0.473229	0.138862
C56	C	0.086096	0.376385	1.005278
H46	H	0.133291	0.421405	0.934590
H47	H	0.026106	0.345124	0.943251
H48	H	0.122992	0.303236	0.055120
