data_NiPyC2_relax_sc211_meta_functionalized_O-CH2-CH2-CH3_lammps_pbesol_relax_PM
_symmetry_space_group_name_H-M	'P1'
_cell_length_a	12.505617
_cell_length_b	12.523412
_cell_length_c	10.276810
_cell_angle_alpha	90.000000
_cell_angle_beta	91.268973
_cell_angle_gamma	90.000000
_symmetry_Int_Tables_number 1

loop_
_symmetry_equiv_pos_as_xyz
'x,y,z'

loop_
_atom_site_label
_atom_site_type_symbol
_atom_site_fract_x
_atom_site_fract_y
_atom_site_fract_z
C1	C	0.292646	0.922620	0.509734
C2	C	0.013202	0.988110	0.089443
C3	C	0.395150	0.972125	0.526313
C4	C	0.121933	0.961205	0.086645
C5	C	0.453824	0.937752	0.635771
C6	C	0.191824	0.025574	0.164920
C7	C	0.194714	0.546283	0.527821
C8	C	0.504145	0.504387	0.134163
C9	C	0.223147	0.630056	0.615423
C10	C	0.534053	0.412673	0.201179
C11	C	0.247704	0.867455	0.616806
C12	C	0.977607	0.075413	0.161320
C13	C	0.408051	0.874737	0.732243
C14	C	0.148103	0.107231	0.244745
C15	C	0.079688	0.593412	0.748027
C16	C	0.357239	0.358664	0.214739
C17	C	0.050588	0.505951	0.670489
C18	C	0.319628	0.448588	0.141197
C19	C	0.107354	0.479572	0.559895
C20	C	0.397445	0.524693	0.096591
C21	C	0.438669	0.060424	0.447787
C22	C	0.156006	0.872753	1.004376
C23	C	0.071584	0.387116	0.483291
C24	C	0.383706	0.615864	0.007139
C25	C	0.779087	0.975673	0.554292
C26	C	0.595531	0.083120	-0.005405
C27	C	0.881097	0.018765	0.571840
C28	C	0.673191	1.007620	0.038718
C29	C	0.945949	0.977796	0.674132
C30	C	0.719737	0.022683	0.161562
C31	C	0.731475	0.548161	0.531009
C32	C	0.888119	0.404321	1.011372
C33	C	0.752339	0.634737	0.613588
C34	C	0.938401	0.333242	0.101516
C35	C	0.746030	0.892336	0.634675
C36	C	0.560708	0.161569	0.084358
C37	C	0.905838	0.896565	0.755904
C38	C	0.682095	0.102390	0.243651
C39	C	0.619674	0.580195	0.754198
C40	C	0.876395	0.430836	0.275109
C41	C	0.603137	0.483983	0.682335
C42	C	0.827765	0.505776	0.191922
C43	C	0.657128	0.470569	0.563188
C44	C	0.835323	0.496779	0.057405
C45	C	0.923377	0.104626	0.491609
C46	C	0.697570	0.907893	0.971186
C47	C	0.640169	0.376147	0.477597
C48	C	0.804019	0.591225	0.979071
C49	C	0.160656	0.842104	0.372807
C50	C	0.049283	0.880391	0.407259
C51	C	0.984766	0.795904	0.471470
C52	C	0.369956	0.995476	0.082102
C53	C	0.442089	0.902264	0.114241
C54	C	0.501266	0.899762	0.240409
C55	C	0.330258	0.604315	0.387258
C56	C	0.435454	0.579325	0.456020
C57	C	0.518337	0.656700	0.415190
C58	C	0.150786	0.513163	0.048415
C59	C	0.133730	0.623048	0.105995
C60	C	0.057666	0.632862	0.214461
C61	C	0.089769	0.052297	0.803341
C62	C	0.081249	0.174156	0.806091
C63	C	0.145152	0.219162	0.916323
C64	C	0.450404	0.116313	0.842119
C65	C	0.441380	0.169170	0.712146
C66	C	0.328491	0.171553	0.665318
C67	C	0.507316	0.397818	0.855166
C68	C	0.387446	0.385134	0.852742
C69	C	0.329613	0.440463	0.745519
C70	C	0.805603	0.398876	0.803076
C71	C	0.797058	0.305795	0.708977
C72	C	0.717213	0.241668	0.700349
H1	H	0.294735	0.676596	0.599803
H2	H	0.982258	0.265403	0.063985
H3	H	0.164379	0.842876	0.611365
H4	H	0.500945	0.220990	0.056277
H5	H	0.455237	0.854213	0.818781
H6	H	0.201543	0.150849	0.310562
H7	H	0.034255	0.615879	0.832535
H8	H	0.298586	0.302030	0.249356
H9	H	0.723744	0.004141	0.479237
H10	H	0.953994	0.940323	0.036481
H11	H	0.535139	0.965044	0.653433
H12	H	0.779451	0.966756	0.198558
H13	H	0.775426	0.542289	0.441810
H14	H	0.566782	0.558658	0.104736
H15	H	0.814679	0.692342	0.593565
H16	H	0.617221	0.394531	0.224246
H17	H	0.668627	0.854247	0.621540
H18	H	0.894209	0.099408	0.160744
H19	H	0.956390	0.864575	0.834316
H20	H	0.716070	0.115963	0.339970
H21	H	0.575303	0.597258	0.841622
H22	H	0.875780	0.438824	0.379702
H23	H	0.983765	0.457042	0.699182
H24	H	0.787588	0.574481	0.233347
H25	H	0.166672	0.824886	0.268581
H26	H	0.183099	0.769514	0.427244
H27	H	0.059892	0.951766	0.468567
H28	H	0.008167	0.910147	0.318041
H29	H	1.015199	0.778015	0.570548
H30	H	0.901040	0.820670	0.478311
H31	H	0.986062	0.719643	0.418624
H32	H	0.419688	0.068682	0.081716
H33	H	0.328272	0.987161	-0.012267
H34	H	0.495306	0.895588	0.030344
H35	H	0.389410	0.831561	0.110656
H36	H	0.543893	0.974561	0.261888
H37	H	0.559577	0.834562	0.243200
H38	H	0.446492	0.887623	0.321594
H39	H	0.338233	0.596941	0.281817
H40	H	0.303565	0.686294	0.406902
H41	H	0.422804	0.580291	0.562435
H42	H	0.456757	0.495104	0.438007
H43	H	0.581594	0.666470	0.489764
H44	H	0.557034	0.631675	0.324825
H45	H	0.485604	0.736835	0.395684
H46	H	0.074754	0.470037	0.038339
H47	H	0.189282	0.519116	-0.046833
H48	H	0.102323	0.669750	0.022268
H49	H	0.211825	0.658194	0.133187
H50	H	0.980783	0.593970	0.190188
H51	H	1.039502	0.717007	0.233081
H52	H	0.088191	0.596221	0.304976
H53	H	1.044036	0.019649	0.884339
H54	H	0.173793	0.027394	0.808404
H55	H	-0.004304	0.195862	0.810654
H56	H	0.107440	0.203504	0.710555
H57	H	0.231009	0.201008	0.907565
H58	H	0.136617	0.306073	0.920999
H59	H	0.122175	0.185987	0.010840
H60	H	0.418750	0.166379	0.920221
H61	H	0.401512	1.043029	0.839336
H62	H	0.494720	0.126687	0.645053
H63	H	0.476536	0.249620	0.712272
H64	H	0.288963	0.093480	0.674825
H65	H	0.319949	0.197782	0.563769
H66	H	0.279238	0.228590	0.719226
H67	H	0.534426	0.467511	0.911488
H68	H	0.547135	0.326636	0.896818
H69	H	0.361102	0.412776	0.948680
H70	H	0.363516	0.300621	0.855485
H71	H	0.343199	0.401111	0.651391
H72	H	0.243282	0.441821	0.760595
H73	H	0.358215	0.522999	0.734196
H74	H	0.824586	0.472191	0.749162
H75	H	0.733241	0.409628	0.859441
H76	H	-0.133013	0.296660	0.645402
H77	H	0.648639	0.189863	0.686592
H78	H	0.450330	0.741984	0.953779
H79	H	0.362340	0.342558	0.480644
H80	H	0.304826	0.343646	0.458017
N1	N	0.304007	0.843671	0.725266
N2	N	0.045071	0.133741	0.237732
N3	N	0.166586	0.652793	0.720399
N4	N	0.460382	0.341194	0.241000
N5	N	0.809189	0.854427	0.732935
N6	N	0.599095	0.165450	0.206917
N7	N	0.695283	0.650501	0.722580
N8	N	0.930663	0.345769	0.229856
Ni1	Ni	0.230151	0.749041	0.851109
Ni2	Ni	0.512729	0.223300	0.348656
Ni3	Ni	0.750297	0.749843	0.859791
Ni4	Ni	0.993204	0.243923	0.356969
O1	O	0.123434	0.339878	0.394370
O2	O	0.465689	0.682903	1.013570
O3	O	0.383749	0.123441	0.374532
O4	O	0.097417	0.832252	0.912724
O5	O	0.552586	0.321023	0.486728
O6	O	0.309004	0.626276	0.924661
O7	O	0.021020	0.136405	0.499549
O8	O	0.249281	0.828909	1.013547
O9	O	0.708430	0.350778	0.395993
O10	O	0.865234	0.633202	0.895143
O11	O	0.865930	0.154674	0.406279
O12	O	0.633571	0.860837	0.890405
O13	O	0.977423	0.347714	0.502339
O14	O	0.715806	0.640127	0.998345
O15	O	0.537769	0.088706	0.460784
O16	O	0.786299	0.858613	0.994919
O17	O	0.242626	0.922546	0.396512
O18	O	0.296043	1.018749	0.180306
O19	O	0.246589	0.530515	0.419974
O20	O	0.215109	0.444404	0.128934
O21	O	0.046603	0.010585	0.684603
O22	O	0.556926	0.077063	0.873822
O23	O	0.546756	0.403240	0.724326
O24	O	0.894601	0.371563	0.889231
