data_NiPyC2_relax_sc211_meta_functionalized_P-2CH3_lammps_pbesol_relax_PM
_symmetry_space_group_name_H-M	'P1'
_cell_length_a	12.505617
_cell_length_b	12.523412
_cell_length_c	10.276810
_cell_angle_alpha	90.000000
_cell_angle_beta	91.268973
_cell_angle_gamma	90.000000
_symmetry_Int_Tables_number 1

loop_
_symmetry_equiv_pos_as_xyz
'x,y,z'

loop_
_atom_site_label
_atom_site_type_symbol
_atom_site_fract_x
_atom_site_fract_y
_atom_site_fract_z
C1	C	0.294271	1.009044	0.527633
C2	C	0.047214	0.078931	0.032951
C3	C	0.370746	0.088478	0.547491
C4	C	0.135558	0.016160	0.068399
C5	C	0.423679	0.097421	0.670100
C6	C	0.184397	0.032016	0.190344
C7	C	0.205441	0.624677	0.525310
C8	C	0.537531	0.515203	0.062978
C9	C	0.267805	0.667149	0.629376
C10	C	0.566594	0.410956	0.100266
C11	C	0.279922	0.932257	0.622786
C12	C	-0.001234	0.143343	0.122894
C13	C	0.404297	1.015676	0.761164
C14	C	0.137744	0.107442	0.272466
C15	C	0.117248	0.703133	0.751556
C16	C	0.394887	0.377291	0.169719
C17	C	0.051382	0.652094	0.659621
C18	C	0.362328	0.483504	0.148470
C19	C	0.095757	0.611066	0.547374
C20	C	0.433365	0.551128	0.083011
C21	C	0.416429	0.140863	0.434464
C22	C	0.157712	0.938652	0.966833
C23	C	0.020016	0.550189	0.456783
C24	C	0.396887	0.659687	1.038578
C25	C	0.748926	0.949133	0.499479
C26	C	0.522871	0.951497	0.054000
C27	C	0.850414	-0.000878	0.518370
C28	C	0.629480	0.923691	0.035613
C29	C	0.925216	0.944205	0.597710
C30	C	0.710843	-0.042459	0.121137
C31	C	0.689993	0.527748	0.475155
C32	C	0.927360	0.421258	0.013960
C33	C	0.715910	0.607871	0.562315
C34	C	0.976148	0.360776	0.110661
C35	C	0.722394	0.866324	0.585628
C36	C	0.502160	0.041540	0.129681
C37	C	0.894902	0.856455	0.671216
C38	C	0.676593	0.030149	0.228011
C39	C	0.589981	0.544284	0.709898
C40	C	0.853557	0.423117	0.261727
C41	C	0.559911	0.458853	0.626710
C42	C	0.806215	0.492968	0.171461
C43	C	0.613997	0.452476	0.507953
C44	C	0.844093	0.490633	0.045452
C45	C	0.882986	0.103246	0.466764
C46	C	0.660647	0.857390	0.928740
C47	C	0.585761	0.371387	0.411996
C48	C	0.813290	0.556816	0.936317
C49	C	0.653459	0.181234	0.650155
C50	C	0.539650	0.195709	0.884397
C51	C	0.881780	0.063298	0.835595
C52	C	0.095181	0.148626	0.771965
C53	C	0.404753	0.651817	0.397070
C54	C	0.195074	0.762073	0.318280
C55	C	0.185063	0.402558	0.289272
C56	C	0.145016	0.576125	0.103167
C57	C	0.524072	0.931088	0.427191
C58	C	0.674972	0.797257	0.314513
C59	C	0.918146	0.946245	0.247539
C60	C	0.866799	0.758648	0.112796
C61	C	0.414869	0.406667	0.830893
C62	C	0.335116	0.359801	0.582824
C63	C	0.080663	0.438871	0.800767
C64	C	0.870618	0.340756	0.749797
H1	H	0.253793	0.998596	0.434003
H2	H	0.458784	0.909548	0.002358
H3	H	0.007232	0.973119	0.606425
H4	H	0.255939	-0.010850	0.221938
H5	H	0.354381	0.675102	0.623759
H6	H	0.047442	0.314198	0.092853
H7	H	0.224603	0.866619	0.606841
H8	H	0.423433	0.078895	0.127727
H9	H	0.446261	1.014838	0.854909
H10	H	0.172104	0.127302	0.367302
H11	H	0.085720	0.741157	0.837851
H12	H	0.341649	0.319021	0.211817
H13	H	0.726944	0.527021	0.381469
H14	H	0.596840	0.566146	0.018514
H15	H	0.777348	0.666210	0.541775
H16	H	0.648244	0.382301	0.091617
H17	H	0.642226	0.832010	0.584088
H18	H	0.921543	0.180983	0.104008
H19	H	0.951062	0.818560	0.738701
H20	H	0.739591	0.083934	0.267555
H21	H	0.553518	0.556904	0.803887
H22	H	0.827105	0.416752	0.361108
H23	H	0.966250	0.644946	0.676346
H24	H	0.741761	0.546123	0.198565
H25	H	0.659873	0.098030	0.619066
H26	H	0.708631	0.196860	0.731602
H27	H	0.670133	0.232109	0.567188
H28	H	0.592794	0.261520	0.912551
H29	H	0.579780	0.120345	0.908648
H30	H	0.464937	0.202339	0.936528
H31	H	0.843072	-0.013444	0.854599
H32	H	0.851748	0.122263	0.905692
H33	H	0.863298	0.090143	0.736598
H34	H	0.178487	0.146577	0.807711
H35	H	0.088684	0.124050	0.669768
H36	H	0.062391	0.229265	0.779733
H37	H	0.421689	0.725805	0.449975
H38	H	0.444700	0.653736	0.304308
H39	H	0.431296	0.583309	0.455546
H40	H	0.109840	0.743275	0.321596
H41	H	0.218196	0.787382	0.221868
H42	H	0.214778	0.822696	0.391799
H43	H	0.239391	0.373300	0.365421
H44	H	0.177503	0.341685	0.213197
H45	H	0.106628	0.419357	0.327899
H46	H	0.123543	0.512236	1.035303
H47	H	0.180344	0.643576	0.052789
H48	H	0.074449	0.600401	0.156299
H49	H	0.520813	0.978909	0.515177
H50	H	0.506634	0.847760	0.448244
H51	H	0.467086	0.960017	0.353438
H52	H	0.758497	0.776737	0.300815
H53	H	0.627367	0.782918	0.225551
H54	H	0.643145	0.748303	0.392806
H55	H	0.893414	0.896131	0.329621
H56	H	0.903943	0.029856	0.266755
H57	H	0.002911	0.930612	0.232796
H58	H	0.910900	0.739220	1.025101
H59	H	0.792577	0.713511	0.109791
H60	H	-0.084925	0.741194	0.200100
H61	H	0.481212	0.407742	0.900692
H62	H	0.380919	0.487125	0.821008
H63	H	0.353711	0.350797	0.862623
H64	H	0.339079	0.306592	0.500050
H65	H	0.274295	0.334195	0.651081
H66	H	0.317262	0.441247	0.549918
H67	H	0.118280	0.513275	0.833115
H68	H	0.121022	0.372086	0.851570
H69	H	0.086090	0.429164	0.695075
H70	H	0.787106	0.345447	0.779076
H71	H	0.877784	0.365138	0.647761
H72	H	0.899667	0.258930	0.761207
N1	N	0.338522	0.931315	0.735439
N2	N	0.045809	0.159020	0.241045
N3	N	0.224142	0.708138	0.737414
N4	N	0.494736	0.341854	0.148177
N5	N	0.792503	0.821096	0.669109
N6	N	0.578360	0.089527	0.200614
N7	N	0.666262	0.616234	0.676966
N8	N	0.935783	0.357976	0.232220
Ni1	Ni	0.318963	0.800837	0.844475
Ni2	Ni	0.532775	0.224708	0.275699
Ni3	Ni	0.724895	0.724850	0.792436
Ni4	Ni	0.968088	0.249592	0.361186
O1	O	-0.006356	0.459397	0.499274
O2	O	0.404332	0.684361	0.916485
O3	O	0.370813	0.161284	0.326615
O4	O	0.087497	0.946990	0.859334
O5	O	0.487203	0.348724	0.396525
O6	O	0.358319	0.719285	1.122462
O7	O	-0.025006	0.144764	0.500160
O8	O	0.227247	0.868231	0.971450
O9	O	0.653428	0.321021	0.343812
O10	O	0.877861	0.543416	0.829912
O11	O	0.828714	0.160502	0.385332
O12	O	0.597478	0.809780	0.849081
O13	O	0.990819	0.594935	0.353275
O14	O	0.738839	0.622274	0.932327
O15	O	0.517978	0.158929	0.445757
O16	O	0.762852	0.842649	0.914964
P1	P	0.522154	0.198979	0.712147
P2	P	0.021063	0.059669	0.867950
P3	P	0.264255	0.644263	0.368944
P4	P	0.236894	0.519538	0.217027
P5	P	0.655744	0.932701	0.366561
P6	P	0.839686	0.898846	0.114815
P7	P	0.457038	0.365679	0.676124
P8	P	0.945660	0.432191	0.845471
