data_NiPyC2_relax_sc211_meta_functionalized_CH2-CH3_lammps_pbesol_relax_PM
_symmetry_space_group_name_H-M	'P1'
_cell_length_a	12.505617
_cell_length_b	12.523412
_cell_length_c	10.276810
_cell_angle_alpha	90.000000
_cell_angle_beta	91.268973
_cell_angle_gamma	90.000000
_symmetry_Int_Tables_number 1

loop_
_symmetry_equiv_pos_as_xyz
'x,y,z'

loop_
_atom_site_label
_atom_site_type_symbol
_atom_site_fract_x
_atom_site_fract_y
_atom_site_fract_z
C1	C	0.344665	0.926703	0.528414
C2	C	0.040766	0.039434	0.045883
C3	C	0.408974	0.010293	0.572920
C4	C	0.143227	0.995800	0.074114
C5	C	0.436665	0.016825	0.706391
C6	C	0.205821	0.044443	0.172115
C7	C	0.241414	0.545119	0.548568
C8	C	0.486559	0.480952	0.072975
C9	C	0.276777	0.613478	0.651455
C10	C	0.514312	0.386120	0.140564
C11	C	0.308571	0.850693	0.616722
C12	C	0.009210	0.130141	0.118970
C13	C	0.396708	0.935066	0.788629
C14	C	0.167129	0.133272	0.240196
C15	C	0.105083	0.637716	0.725781
C16	C	0.339658	0.350474	0.195008
C17	C	0.063489	0.569821	0.627842
C18	C	0.304146	0.443215	0.130808
C19	C	0.131928	0.516361	0.543719
C20	C	0.377517	0.511144	0.071482
C21	C	0.445818	0.089793	0.478399
C22	C	0.186554	0.902016	1.004222
C23	C	0.086985	0.434712	0.454135
C24	C	0.337462	0.608081	1.005014
C25	C	0.771367	0.017340	0.489987
C26	C	0.564012	0.934526	0.107478
C27	C	0.879290	0.043763	0.500832
C28	C	0.633067	0.971558	0.010601
C29	C	0.949710	0.976105	0.573717
C30	C	0.671048	0.075942	1.015787
C31	C	0.705924	0.527495	0.473746
C32	C	0.921926	0.458468	0.948580
C33	C	0.734389	0.619841	0.543220
C34	C	-0.039855	0.385027	0.044008
C35	C	0.733510	0.928695	0.558821
C36	C	0.527483	0.011472	0.197374
C37	C	0.904010	0.890963	0.644228
C38	C	0.633519	0.145398	0.111112
C39	C	0.596326	0.593755	0.688806
C40	C	0.907627	0.494504	0.213814
C41	C	0.567142	0.494736	0.630390
C42	C	0.867830	0.571211	0.126858
C43	C	0.621535	0.465173	0.516269
C44	C	0.876590	0.554589	0.993650
C45	C	0.923067	0.144795	0.451395
C46	C	0.671489	0.897590	0.909311
C47	C	0.585282	0.370605	0.442295
C48	C	0.830506	0.635567	0.904280
C49	C	0.499653	0.103764	0.765469
C50	C	0.441978	0.166732	0.867567
C51	C	0.962524	0.997288	0.951516
C52	C	0.910473	0.077138	0.861734
C53	C	0.315963	0.525613	0.444142
C54	C	0.296199	0.615371	0.346467
C55	C	0.575096	0.533251	0.008183
C56	C	0.647431	0.455036	0.941604
C57	C	0.062439	-0.005687	0.576812
C58	C	0.129026	0.994730	0.692665
C59	C	0.537409	0.821098	0.120541
C60	C	0.483859	0.785139	0.240278
C61	C	0.492914	0.418741	0.688239
C62	C	0.411645	0.446565	0.784480
C63	C	0.928701	0.433128	0.809906
C64	C	0.931289	0.320127	0.765261
H1	H	0.320423	0.919961	0.426487
H2	H	0.285104	0.014814	0.197817
H3	H	0.360860	0.635065	0.659164
H4	H	-0.002979	0.310744	0.013196
H5	H	0.255214	0.787787	0.583633
H6	H	0.471430	0.987354	0.270877
H7	H	0.415145	0.937639	0.892217
H8	H	0.212851	0.168155	0.320486
H9	H	0.052879	0.675293	0.795364
H10	H	0.284961	0.299062	0.245795
H11	H	0.219613	0.462870	0.131045
H12	H	0.714984	0.066229	0.434853
H13	H	0.728614	0.104804	0.946556
H14	H	0.749789	0.505217	0.387886
H15	H	0.801746	0.669356	0.516180
H16	H	0.598018	0.364450	0.147744
H17	H	0.649214	0.907396	0.556969
H18	H	0.929198	0.162421	0.103601
H19	H	0.953482	0.840455	0.707284
H20	H	0.662822	0.226784	0.118952
H21	H	0.553730	0.623764	0.772226
H22	H	0.905617	0.505233	0.318528
H23	H	0.977348	0.561471	0.618198
H24	H	0.830968	0.643271	0.164127
H25	H	0.531609	0.156010	0.689488
H26	H	0.571032	0.066559	0.812837
H27	H	0.374132	0.211050	0.824484
H28	H	0.496541	0.224423	0.914245
H29	H	0.409586	0.114726	0.943383
H30	H	0.897985	0.958982	0.008337
H31	H	0.996790	0.928695	0.899482
H32	H	0.881908	0.147682	0.914108
H33	H	0.844026	0.041678	0.806402
H34	H	0.967197	0.109976	0.792013
H35	H	0.300060	0.448024	0.396776
H36	H	0.399331	0.527503	0.480165
H37	H	0.215269	0.612316	0.303235
H38	H	0.354300	0.607758	0.268594
H39	H	0.307926	0.694515	0.390472
H40	H	0.543245	0.597231	0.944879
H41	H	0.622267	0.580188	0.081158
H42	H	0.603841	0.385094	0.904358
H43	H	0.687942	0.492161	0.859941
H44	H	0.710891	0.425503	0.008352
H45	H	0.016702	0.158427	0.601119
H46	H	0.097444	0.015663	0.483705
H47	H	0.094843	1.047735	0.766717
H48	H	0.211335	0.016196	0.675398
H49	H	0.123121	0.917929	0.745544
H50	H	0.490683	0.796898	0.031484
H51	H	0.611658	0.774941	0.102793
H52	H	0.525521	0.813032	0.329532
H53	H	0.400697	0.813928	0.243229
H54	H	0.480443	0.697905	0.245423
H55	H	0.454085	0.377307	0.599494
H56	H	0.542197	0.348748	0.718570
H57	H	0.422820	0.528017	0.820432
H58	H	0.329471	0.441826	0.744052
H59	H	0.412610	0.390096	0.866021
H60	H	0.868412	0.479935	0.754895
H61	H	0.005370	0.471942	0.780077
H62	H	0.856936	0.278184	0.788515
H63	H	0.939005	0.316989	0.659461
H64	H	0.998172	0.275265	0.809921
N1	N	0.334150	0.854992	0.745271
N2	N	0.070759	0.177195	0.210699
N3	N	0.210813	0.656847	0.738308
N4	N	0.444383	0.323900	0.200365
N5	N	0.799019	0.868268	0.635596
N6	N	0.560207	0.113731	0.197622
N7	N	0.679658	0.652263	0.648397
N8	N	0.952601	0.402400	0.172480
Ni1	Ni	0.267922	0.756131	0.875858
Ni2	Ni	0.506818	0.218450	0.324025
Ni3	Ni	0.742664	0.765767	0.763795
Ni4	Ni	0.007307	0.300239	0.307906
O1	O	0.140879	0.379876	0.372133
O2	O	0.395726	0.667921	0.931640
O3	O	0.384041	0.127345	0.388139
O4	O	0.133432	0.844588	0.920581
O5	O	0.488943	0.333523	0.455960
O6	O	0.240092	0.638287	0.009934
O7	O	0.009229	0.186769	0.512430
O8	O	0.283620	0.870933	0.020470
O9	O	0.640153	0.320530	0.359495
O10	O	0.874649	0.670094	0.801219
O11	O	0.890241	0.193863	0.352595
O12	O	0.610827	0.847314	0.828734
O13	O	0.986973	0.409827	0.453712
O14	O	0.739011	0.675909	0.927459
O15	O	0.542586	0.122987	0.477429
O16	O	0.771671	0.879834	0.900451
