data_NiPyC2_relax_sc211_meta_functionalized_O-CH3_lammps_PM
_symmetry_space_group_name_H-M	'P1'
_cell_length_a	13.418882
_cell_length_b	9.871771
_cell_length_c	11.434951
_cell_angle_alpha	90.000000
_cell_angle_beta	91.268998
_cell_angle_gamma	90.000000
_symmetry_Int_Tables_number 1

loop_
_symmetry_equiv_pos_as_xyz
'x,y,z'

loop_
_atom_site_label
_atom_site_type_symbol
_atom_site_fract_x
_atom_site_fract_y
_atom_site_fract_z
Ni1	Ni	0.227325	0.905903	0.806355
Ni2	Ni	0.472557	0.350687	0.278205
O1	O	0.095679	0.473405	0.334694
O2	O	0.341495	0.814272	0.820466
O3	O	0.364096	0.251740	0.287969
O4	O	0.115523	1.000100	0.819885
O5	O	0.437970	0.464624	0.387649
O6	O	0.202161	0.797575	0.921927
O7	O	0.020906	0.255563	0.427173
O8	O	0.262408	1.032115	0.907520
N1	N	0.268260	1.018368	0.676051
N2	N	0.036877	0.258569	0.202763
N3	N	0.173846	0.774072	0.700250
N4	N	0.420742	0.472040	0.159727
C1	C	0.275150	1.054238	0.466819
C2	C	0.016105	0.176820	0.005458
H1	H	0.243772	1.035853	0.380239
H2	H	0.466966	1.095416	0.897154
C3	C	0.358952	0.136090	0.481157
C4	C	0.118637	0.139841	0.004098
C5	C	0.387225	0.176154	0.595600
C6	C	0.176274	0.159854	0.107050
H3	H	0.252110	1.123405	0.113213
C7	C	0.197379	0.634597	0.531279
C8	C	0.430501	0.585753	-0.026822
C9	C	0.233794	0.691700	0.636719
C10	C	0.472645	0.500988	0.060596
H4	H	0.311964	0.683834	0.657977
H5	H	0.073507	0.520702	0.120291
C11	C	0.229783	0.997300	0.564893
C12	C	-0.023348	0.223347	0.111565
H6	H	0.159503	0.946355	0.551865
H7	H	0.392890	0.234568	0.053141
C13	C	0.339041	1.117520	0.691967
C14	C	0.134686	0.222976	0.204238
H8	H	0.351440	0.161783	0.776716
H9	H	0.180338	0.243613	0.280869
C15	C	0.073039	0.762223	0.686283
C16	C	0.331527	0.535872	0.176675
H10	H	0.024961	0.806181	0.749540
H11	H	0.285860	0.505774	0.248402
C17	C	0.031971	0.678974	0.598754
C18	C	0.303962	0.649574	0.108122
H12	H	0.452341	0.569720	0.593814
C19	C	0.092733	0.622805	0.513726
C20	C	0.344883	0.661445	-0.002608
C21	C	0.413037	0.186749	0.376515
C22	C	0.166945	1.074863	0.900120
C23	C	0.044617	0.539804	0.417536
C24	C	0.294610	0.749414	0.907992
Ni3	Ni	0.720062	0.841275	0.790234
Ni4	Ni	-0.013700	0.373255	0.318278
O9	O	0.581372	0.450199	0.295380
O10	O	0.829988	0.742272	0.806766
O11	O	0.858857	0.272694	0.327733
O12	O	0.610263	0.940101	0.799986
O13	O	0.932701	0.488835	0.426858
O14	O	0.686280	0.724672	0.898598
O15	O	0.506934	0.233771	0.387611
O16	O	0.753362	0.957050	0.899770
N5	N	0.771728	0.960983	0.673766
N6	N	0.524106	0.232462	0.161124
N7	N	0.668880	0.722661	0.672463
N8	N	0.914890	0.490504	0.198605
C25	C	0.764354	1.065462	0.483256
C26	C	0.510859	1.121876	-0.026661
H13	H	0.726192	1.076919	0.400088
C27	C	0.857995	1.125816	0.503997
C28	C	0.607961	1.072371	-0.013146
C29	C	0.898468	1.120518	0.616940
C30	C	0.653140	1.079320	0.098479
C31	C	0.679999	0.625540	0.480388
C32	C	0.934865	0.595057	0.008445
H14	H	0.463755	0.590825	0.888468
C33	C	0.724566	0.688273	0.578674
C34	C	-0.005676	0.539666	0.113771
H15	H	0.797091	0.732075	0.570061
H16	H	0.543125	0.452446	0.045487
C35	C	0.719165	0.990875	0.572960
C36	C	0.468139	0.197291	0.063969
H17	H	0.644388	0.952194	0.559497
H18	H	0.879511	0.242409	0.118287
C37	C	0.864234	1.016889	0.691260
C38	C	0.616791	0.176342	0.177763
H19	H	0.908113	0.987473	0.766295
H20	H	0.659503	0.199820	0.255983
C39	C	0.571679	0.681894	0.677043
C40	C	0.813778	0.494800	0.181241
H21	H	0.526327	0.715272	0.747965
H22	H	0.765726	0.447036	0.242776
C41	C	0.528119	0.605108	0.586297
C42	C	0.770835	0.550973	0.079922
H23	H	0.937109	0.646916	0.604759
H24	H	0.690750	0.555150	0.070872
C43	C	0.581548	0.578794	0.485053
C44	C	0.830165	0.605328	-0.006765
C45	C	0.909271	0.204257	0.411441
C46	C	0.660056	1.005895	0.887121
C47	C	0.530747	0.514534	0.380692
C48	C	0.779927	0.675565	0.890664
O17	O	0.445519	0.290269	0.612796
C49	C	0.541745	0.250047	0.650499
H25	H	0.591208	0.339927	0.652186
H26	H	0.540957	0.209138	0.740632
H27	H	0.574834	0.175625	0.590172
O18	O	0.933930	0.148855	0.910564
C50	C	0.855583	0.245825	0.898239
H28	H	0.815587	0.234412	0.813696
H29	H	0.795785	0.228003	-0.038535
H30	H	0.882680	0.350964	0.904178
O19	O	0.263145	0.603260	0.444084
C51	C	0.315383	0.723039	0.413903
H31	H	0.368775	0.702167	0.344570
H32	H	0.263362	0.802584	0.382939
H33	H	0.363305	0.762813	0.486419
O20	O	0.272035	0.766702	0.162578
C52	C	0.168446	0.764229	0.178897
H34	H	0.125231	0.746275	0.097353
H35	H	0.145308	0.864870	0.211861
H36	H	0.149026	0.689132	0.246080
O21	O	0.935072	0.239637	0.665832
C53	C	0.058760	0.244237	0.668576
H37	H	0.083725	0.336345	0.622126
H38	H	0.094700	0.155413	0.629367
H39	H	0.085256	0.256212	0.759911
O22	O	0.699561	0.964751	0.142342
C54	C	0.803059	0.984410	0.153056
H40	H	0.835511	1.023008	0.072360
H41	H	0.821327	1.050034	0.228590
H42	H	0.839777	0.885323	0.168865
O23	O	0.727313	0.629380	0.375768
C55	C	0.704346	0.753594	0.321282
H43	H	0.708581	0.738409	0.226179
H44	H	0.627388	0.792261	0.336438
H45	H	0.760197	0.830197	0.349449
O24	O	0.016992	0.637089	0.922207
C56	C	0.053275	0.522241	0.862746
H46	H	-0.000466	0.492033	0.792332
H47	H	0.071562	0.434680	0.920641
H48	H	0.124771	0.548280	0.822059
