data_NiPyC2_relax_sc211_ortho_functionalized_O-CH3_lammps_PM
_symmetry_space_group_name_H-M	'P1'
_cell_length_a	14.306270
_cell_length_b	11.254963
_cell_length_c	9.555984
_cell_angle_alpha	90.000000
_cell_angle_beta	91.268998
_cell_angle_gamma	90.000000
_symmetry_Int_Tables_number 1

loop_
_symmetry_equiv_pos_as_xyz
'x,y,z'

loop_
_atom_site_label
_atom_site_type_symbol
_atom_site_fract_x
_atom_site_fract_y
_atom_site_fract_z
Ni1	Ni	0.198998	0.825280	0.935000
Ni2	Ni	0.455539	0.264037	0.377660
O1	O	0.030549	0.416271	0.451377
O2	O	0.296895	0.731360	0.944838
O3	O	0.347925	0.189322	0.392045
O4	O	0.103683	0.921211	0.946381
O5	O	0.450323	0.335646	0.539790
O6	O	0.173529	0.731128	0.081835
O7	O	-0.036763	0.224763	0.580869
O8	O	0.241129	0.936778	0.055887
N1	N	0.248630	0.914867	0.782265
N2	N	0.001156	0.213732	0.312640
N3	N	0.133113	0.716798	0.813133
N4	N	0.402770	0.402234	0.286823
C1	C	0.256120	0.979843	0.542166
C2	C	0.021992	0.125949	0.085992
H1	H	0.230535	0.965556	0.437806
H2	H	0.409306	0.919061	0.111823
C3	C	0.348195	1.023504	0.564526
C4	C	0.107787	0.076283	0.127646
C5	C	0.390164	1.003477	0.693833
C6	C	0.143714	0.107341	0.257938
H3	H	0.926127	1.045032	0.779793
H4	H	0.215620	0.090061	0.280853
C7	C	0.112675	0.620244	0.590892
C8	C	0.398114	0.547867	0.101123
H5	H	0.136486	0.609192	0.485534
H6	H	0.893245	0.484474	0.945530
C9	C	0.169478	0.680256	0.690649
C10	C	0.444164	0.455684	0.175512
H7	H	0.239098	0.707437	0.664379
C11	C	0.203057	0.936884	0.657439
C12	C	-0.034508	0.183722	0.184703
C13	C	0.342050	0.941620	0.796313
C14	C	0.093911	0.185816	0.344660
H8	H	0.380489	0.910389	0.885527
C15	C	0.040688	0.688930	0.841497
C16	C	0.319978	0.447043	0.334814
C17	C	-0.009561	0.608687	0.754745
C18	C	0.267711	0.531001	0.254272
H9	H	0.450115	0.592197	0.519799
H10	H	0.197096	0.553030	0.282265
C19	C	0.026564	0.573010	0.628902
C20	C	0.307904	0.585137	0.138974
C21	C	0.395327	0.102803	0.459350
C22	C	0.154131	0.985707	1.035504
C23	C	-0.019485	0.479958	0.538220
C24	C	0.257536	0.679569	0.053463
Ni3	Ni	0.663492	0.768345	0.872590
Ni4	Ni	0.921025	0.320333	0.434422
O9	O	0.565763	0.333519	0.390639
O10	O	0.770918	0.692847	0.891917
O11	O	0.823708	0.225517	0.438446
O12	O	0.553289	0.838801	0.880748
O13	O	0.879208	0.430435	0.555162
O14	O	0.630477	0.634585	0.958559
O15	O	0.488424	0.130164	0.466036
O16	O	0.670105	0.839168	1.035523
N5	N	0.715928	0.906196	0.784666
N6	N	0.478337	0.191022	0.201501
N7	N	0.639760	0.696045	0.695037
N8	N	0.869734	0.411309	0.281866
C25	C	0.720469	1.049626	0.596879
C26	C	0.452855	0.997302	0.108738
H11	H	0.685919	0.090183	0.506924
H12	H	-0.002357	0.117808	0.979029
C27	C	0.812543	0.083168	0.635800
C28	C	0.545990	0.989421	0.068643
C29	C	0.853668	1.028311	0.752756
C30	C	0.601309	0.091672	0.079258
H13	H	0.461165	1.032647	0.715239
H14	H	0.667057	0.096890	1.027138
C31	C	0.667679	0.501827	0.606792
C32	C	0.863834	0.486969	0.046490
H15	H	0.713865	0.426139	0.607383
H16	H	0.432009	0.588161	1.012697
C33	C	0.700910	0.615098	0.643543
C34	C	0.916219	0.441091	0.163374
H17	H	0.511622	0.426099	0.141879
C35	C	0.673634	0.960021	0.671573
C36	C	0.417853	0.108631	0.148149
H18	H	0.604823	0.932433	0.636667
H19	H	0.881659	0.213366	0.154311
C37	C	0.800448	0.948382	0.834089
C38	C	0.567809	0.190690	0.152117
H20	H	0.613513	0.265726	0.169449
C39	C	0.549469	0.692162	0.643997
C40	C	0.775981	0.436339	0.290600
H21	H	0.503150	0.766889	0.656819
H22	H	0.738281	0.406175	0.379205
C41	C	0.516045	0.589759	0.575889
C42	C	0.727316	0.498949	0.186050
H23	H	0.903637	0.592209	0.773873
H24	H	0.655934	0.526321	0.202933
C43	C	0.573063	0.488786	0.571359
C44	C	0.770545	0.525550	0.062018
C45	C	0.864424	0.172631	0.548072
C46	C	0.583064	0.878490	1.006552
C47	C	0.537066	0.375074	0.513864
C48	C	0.723326	0.606679	0.956394
O17	O	0.105729	0.939994	0.653368
C49	C	0.065715	0.891358	0.529312
H25	H	0.041473	0.964366	0.459777
H26	H	0.003028	0.839264	0.557219
H27	H	0.112684	0.832380	0.469497
O18	O	0.146047	0.260832	0.429421
C50	C	0.153352	0.222061	0.569578
H28	H	0.227774	0.210812	0.600061
H29	H	0.114797	0.140180	0.591791
H30	H	0.126606	0.292493	0.639220
O19	O	-0.010747	0.763983	0.923732
C51	C	-0.015463	0.726141	0.064205
H31	H	0.895954	0.715340	0.093339
H32	H	0.012578	0.796996	0.133934
H33	H	0.023047	0.644013	0.087972
O20	O	0.281968	0.399173	0.453292
C52	C	0.290366	0.477485	0.567887
H34	H	0.230834	0.460261	0.636337
H35	H	0.350061	0.458974	0.638869
H36	H	0.294410	0.571819	0.535762
O21	O	0.839104	0.900829	0.954731
C53	C	0.831086	0.979079	0.068737
H37	H	0.892864	0.965014	0.137728
H38	H	0.774275	0.957195	0.139812
H39	H	0.822540	0.072853	1.036117
O22	O	0.327877	0.141063	0.111407
C54	C	0.328467	0.207437	0.985944
H40	H	0.379643	0.174650	0.908698
H41	H	0.258132	0.201821	0.935133
H42	H	0.342227	0.302332	1.009096
O23	O	0.789488	0.649833	0.607780
C55	C	0.784965	0.710885	0.478769
H43	H	0.737032	0.668601	0.400101
H44	H	0.855749	0.711478	0.433662
H45	H	0.763900	0.804556	0.494983
O24	O	0.028163	0.447766	0.168310
C56	C	0.070466	0.399950	0.048108
H46	H	0.098286	0.473387	0.983960
H47	H	0.131072	0.344834	0.082172
H48	H	0.023892	0.344637	0.979917
