data_NiPyC2_relax_sc211_meta_functionalized_CH2-CH3_lammps_PM
_symmetry_space_group_name_H-M	'P1'
_cell_length_a	13.909953
_cell_length_b	9.877603
_cell_length_c	11.518533
_cell_angle_alpha	90.000000
_cell_angle_beta	91.268998
_cell_angle_gamma	90.000000
_symmetry_Int_Tables_number 1

loop_
_symmetry_equiv_pos_as_xyz
'x,y,z'

loop_
_atom_site_label
_atom_site_type_symbol
_atom_site_fract_x
_atom_site_fract_y
_atom_site_fract_z
Ni1	Ni	0.211164	0.897059	0.796990
Ni2	Ni	0.453901	0.369434	0.282072
O1	O	0.075094	0.479881	0.325462
O2	O	0.311516	0.786768	0.807349
O3	O	0.347374	0.272162	0.298392
O4	O	0.110686	1.004564	0.815823
O5	O	0.425229	0.488876	0.385500
O6	O	0.175012	0.775127	0.900813
O7	O	0.006269	0.265682	0.427518
O8	O	0.249619	1.002133	0.913483
N1	N	0.266634	1.018618	0.683479
N2	N	0.032642	0.249563	0.205763
N3	N	0.154469	0.792956	0.671506
N4	N	0.399296	0.486056	0.167204
C1	C	0.252135	0.165646	0.514099
C2	C	0.013673	1.126478	0.029809
H1	H	0.208018	0.231634	0.460440
C3	C	0.349780	0.144639	0.487968
C4	C	0.114798	1.124311	0.012383
C5	C	0.404440	1.062323	0.562763
C6	C	0.173159	0.177915	0.102522
H2	H	0.249939	0.164412	0.101865
C7	C	0.153968	0.714572	0.471374
C8	C	0.415144	0.621139	-0.001013
C9	C	0.201581	0.773693	0.569263
C10	C	0.453878	0.567138	0.101810
H3	H	0.275073	0.804655	0.561788
H4	H	0.051321	0.474824	0.087871
C11	C	0.211162	1.099872	0.611566
C12	C	-0.020428	0.164962	0.138202
H5	H	0.135115	1.110897	0.626262
H6	H	0.382950	0.269903	0.054409
C13	C	0.361202	0.998181	0.656767
C14	C	0.130393	0.244196	0.197428
H7	H	0.404015	0.929028	0.707061
H8	H	0.174756	0.284944	0.266063
C15	C	0.058960	0.762143	0.673975
C16	C	0.301675	0.506255	0.164366
H9	H	0.014019	0.809283	0.737137
H10	H	0.259159	0.471899	0.235369
C17	C	0.017579	0.674321	0.591021
C18	C	0.257869	0.587100	0.077512
H11	H	0.182521	0.612009	0.082582
C19	C	0.064645	0.649272	0.487411
C20	C	0.313096	0.639789	-0.011932
C21	C	0.396795	0.209529	0.384520
C22	C	0.161242	1.058799	0.906501
C23	C	0.021621	0.552273	0.399498
C24	C	0.263290	0.719231	0.889385
Ni3	Ni	0.705757	0.853223	0.787090
Ni4	Ni	-0.026105	0.373317	0.310669
O9	O	0.561615	0.465665	0.292787
O10	O	0.815003	0.759267	0.805023
O11	O	0.852886	0.269918	0.319524
O12	O	0.596480	0.949213	0.798781
O13	O	0.914958	0.496608	0.410159
O14	O	0.678822	0.739648	0.898798
O15	O	0.487611	0.257155	0.391237
O16	O	0.733581	0.976113	0.895915
N5	N	0.754358	0.971970	0.664783
N6	N	0.501885	0.245896	0.166849
N7	N	0.656363	0.725785	0.671109
N8	N	0.905738	0.479775	0.183746
C25	C	0.781189	1.029045	0.462214
C26	C	0.498127	0.164229	-0.031451
H12	H	0.763101	1.013627	0.371207
C27	C	0.850035	1.125658	0.495679
C28	C	0.588235	1.095063	-0.015311
C29	C	0.864419	0.148975	0.613996
C30	C	0.630554	1.101684	0.096728
H13	H	0.696193	1.046509	0.116268
C31	C	0.668474	0.618559	0.482920
C32	C	0.915505	0.564868	-0.013188
H14	H	0.710557	0.602493	0.406947
C33	C	0.712482	0.673424	0.585215
C34	C	-0.022741	0.506162	0.088232
H15	H	0.787847	0.696195	0.585341
H16	H	0.528970	0.580596	0.122703
C35	C	0.729718	0.958886	0.548185
C36	C	0.453853	0.228141	0.064354
H17	H	0.668702	0.901154	0.520367
H18	H	0.890001	0.135652	0.162952
C37	C	0.834273	1.046762	0.690727
C38	C	0.589423	0.183347	0.184258
H19	H	0.888440	0.999398	0.743460
H20	H	0.628279	0.196697	0.265825
C39	C	0.559314	0.699934	0.665505
C40	C	0.812567	0.523545	0.186878
H21	H	0.511222	0.762017	0.712792
H22	H	0.768255	0.493884	0.257933
C41	C	0.520611	0.606803	0.584561
C42	C	0.772684	0.604260	0.097583
H23	H	0.932136	0.625162	0.608300
H24	H	0.702467	0.648907	0.108728
C43	C	0.569429	0.589002	0.481559
C44	C	0.821404	0.622020	-0.006683
C45	C	0.900341	0.208660	0.407716
C46	C	0.641601	1.020936	0.884540
C47	C	0.516392	0.534694	0.376524
C48	C	0.769598	0.692831	0.890957
C49	C	0.509744	1.038319	0.542854
C50	C	0.573566	0.156135	0.585774
H25	H	0.522488	1.015955	0.449861
H26	H	0.531337	0.946099	0.589550
H27	H	0.531739	0.241359	0.616194
H28	H	0.622342	0.191527	0.517228
H29	H	0.617738	1.128260	0.661767
C51	C	0.924855	1.115514	0.932570
C52	C	0.840036	0.215426	0.942235
H30	H	0.900310	1.009066	0.931701
H31	H	-0.019947	0.141646	0.852627
H32	H	0.796313	0.197094	0.019110
H33	H	0.791053	0.208372	0.866378
H34	H	0.866219	0.319980	0.945804
C53	C	0.194052	0.736341	0.351304
C54	C	0.205039	0.886318	0.322237
H35	H	0.147292	0.692887	0.281973
H36	H	0.265555	0.687042	0.347207
H37	H	0.138610	0.943376	0.342548
H38	H	0.219250	0.898076	0.228239
H39	H	0.267054	0.929251	0.371530
C55	C	0.479485	0.630925	0.899345
C56	C	0.558721	0.519259	0.898920
H40	H	0.434878	0.619185	0.821615
H41	H	0.510270	0.733881	0.902446
H42	H	0.528486	0.417666	0.906996
H43	H	0.600606	0.519742	0.818660
H44	H	0.610985	0.529519	-0.028510
C57	C	0.875343	0.293274	0.656931
C58	C	0.778425	0.365202	0.658036
H45	H	0.924898	0.353026	0.603666
H46	H	0.908464	0.297822	0.743603
H47	H	0.724664	0.306702	0.706633
H48	H	0.751098	0.380271	0.567762
H49	H	0.787033	0.464321	0.701695
C59	C	0.443179	0.154659	0.856787
C60	C	0.364034	0.261775	0.833959
H50	H	0.493806	0.161692	0.786156
H51	H	0.411067	1.053444	0.860221
H52	H	0.385483	0.364750	0.859826
H53	H	0.344869	0.264963	0.740387
H54	H	0.298432	0.239250	0.882143
C61	C	0.450487	0.497689	0.622671
C62	C	0.344861	0.534991	0.611249
H55	H	0.458034	0.408490	0.568061
H56	H	0.468770	0.456397	0.708316
H57	H	0.320639	0.590529	0.687464
H58	H	0.332386	0.594816	0.531755
H59	H	0.300159	0.442156	0.604026
C63	C	-0.011414	0.570358	0.875977
C64	C	0.067621	0.463999	0.860525
H60	H	0.919998	0.559197	0.801022
H61	H	0.021582	0.670667	0.876959
H62	H	0.042839	0.362355	0.885590
H63	H	0.088681	0.460695	0.768122
H64	H	0.132573	0.489114	0.912901
