data_NiPyC2_relax_sc211_ortho_functionalized_CH2-CH3_lammps_PM
_symmetry_space_group_name_H-M	'P1'
_cell_length_a	15.941746
_cell_length_b	10.313682
_cell_length_c	10.341267
_cell_angle_alpha	90.000000
_cell_angle_beta	91.268998
_cell_angle_gamma	90.000000
_symmetry_Int_Tables_number 1

loop_
_symmetry_equiv_pos_as_xyz
'x,y,z'

loop_
_atom_site_label
_atom_site_type_symbol
_atom_site_fract_x
_atom_site_fract_y
_atom_site_fract_z
Ni1	Ni	0.151537	0.878793	0.874536
Ni2	Ni	0.381947	0.345318	0.346180
O1	O	-0.006577	0.465357	0.378130
O2	O	0.246054	0.794126	0.893220
O3	O	0.298121	0.235287	0.347088
O4	O	0.057566	0.965256	0.876934
O5	O	0.340573	0.459537	0.462772
O6	O	0.134371	0.784142	0.010935
O7	O	-0.072630	0.249603	0.483844
O8	O	0.176282	1.011297	0.981687
N1	N	0.192057	0.980688	0.732295
N2	N	-0.054700	0.259737	0.231534
N3	N	0.106249	0.740139	0.765116
N4	N	0.332176	0.444682	0.210425
C1	C	0.205936	1.057818	0.512805
C2	C	-0.041867	0.150973	0.025253
H1	H	0.179848	1.072061	0.416365
H2	H	0.429718	0.111276	0.928955
C3	C	0.286966	1.106705	0.543884
C4	C	0.044870	0.131131	0.047545
C5	C	0.315510	1.099947	0.669792
C6	C	0.080250	0.177170	0.161626
H3	H	0.867662	0.127147	0.711055
H4	H	0.146356	0.162347	0.183246
C7	C	0.095489	0.633932	0.556238
C8	C	0.314553	0.552751	0.006101
H5	H	0.124385	0.608503	0.465924
H6	H	0.804197	0.524338	0.911285
C9	C	0.142153	0.705750	0.650794
C10	C	0.366647	0.483403	0.095027
H7	H	0.205440	0.736288	0.630620
H8	H	-0.082120	0.439990	0.078803
C11	C	0.156647	0.997937	0.610173
C12	C	-0.093153	0.199192	0.125854
H9	H	0.341797	0.207232	0.097957
C13	C	0.267678	1.039415	0.761989
C14	C	0.030038	0.237739	0.252858
H10	H	0.293822	1.032919	0.858261
H11	H	0.059020	0.264020	0.344521
C15	C	0.031405	0.678820	0.798326
C16	C	0.250019	0.475720	0.234092
H12	H	0.219354	0.435423	0.317091
C17	C	-0.022217	0.630984	0.697834
C18	C	0.209213	0.572284	0.165387
H13	H	0.384989	0.572326	0.702596
H14	H	0.153315	0.615717	0.203549
C19	C	0.010797	0.600658	0.577777
C20	C	0.242923	0.615990	0.051936
C21	C	0.336439	0.179482	0.447330
C22	C	0.095108	1.048064	0.958079
C23	C	-0.040954	0.525995	0.477433
C24	C	0.212157	0.739234	0.995054
Ni3	Ni	0.625671	0.853652	0.840416
Ni4	Ni	0.884891	0.372122	0.365096
O9	O	0.461977	0.456945	0.364277
O10	O	0.702142	0.731841	0.848234
O11	O	0.793612	0.282576	0.374900
O12	O	0.550596	0.972165	0.851337
O13	O	0.866487	0.478578	0.496546
O14	O	0.590065	0.742979	0.965640
O15	O	0.410043	0.241685	0.476404
O16	O	0.665831	0.956145	0.969800
N5	N	0.685721	0.959052	0.712554
N6	N	0.444214	0.234495	0.230085
N7	N	0.560209	0.757600	0.711791
N8	N	0.832223	0.497598	0.238762
C25	C	0.703380	1.067766	0.508677
C26	C	0.456365	0.126827	0.024664
H15	H	0.684328	1.070239	0.408603
H16	H	-0.070882	0.118901	0.935386
C27	C	0.781550	0.121213	0.550071
C28	C	0.539678	1.087720	0.054084
C29	C	0.807496	1.092103	0.675009
C30	C	0.569730	0.109220	0.178623
H17	H	0.375460	0.142013	0.697990
H18	H	0.630632	1.071732	0.206871
C31	C	0.525340	0.690995	0.493684
C32	C	0.789093	0.534677	0.012314
H19	H	0.540443	0.692775	0.392091
H20	H	0.334571	0.569603	0.908498
C33	C	0.582620	0.744606	0.586201
C34	C	0.846144	0.483364	0.109213
H21	H	0.643568	0.774113	0.557163
C35	C	0.650409	1.008457	0.601475
C36	C	0.407302	0.187548	0.119109
H22	H	0.584790	0.992555	0.578941
C37	C	0.771035	0.981648	0.731545
C38	C	0.528518	0.201211	0.257932
C39	C	0.478733	0.720937	0.741946
C40	C	0.760470	0.569972	0.271709
C41	C	0.439234	0.622734	0.666671
C42	C	0.697393	0.604219	0.176684
H23	H	-0.084264	0.596256	0.720764
H24	H	0.639934	0.650355	0.206792
C43	C	0.455885	0.618756	0.535823
C44	C	0.713898	0.597233	0.046166
C45	C	0.831776	0.208708	0.462668
C46	C	0.591323	1.022341	0.950320
C47	C	0.415867	0.520716	0.446927
C48	C	0.662758	0.675299	0.944080
C49	C	0.062761	0.986030	0.587450
C50	C	0.037696	0.933726	0.453309
H25	H	0.033686	1.082659	0.601384
H26	H	0.035079	0.920792	0.657861
H27	H	0.082730	0.859777	0.419523
H28	H	0.035118	1.013343	0.381976
H29	H	-0.025757	0.889375	0.456141
C51	C	0.802591	0.153258	0.126629
C52	C	0.744293	0.246012	0.054283
H30	H	0.799195	1.059224	0.074957
H31	H	0.779924	0.126802	0.222494
H32	H	0.775187	0.286557	0.968165
H33	H	0.689424	0.196467	0.014958
H34	H	0.720377	0.320584	0.120838
C53	C	0.023042	0.611696	0.930559
C54	C	-0.009265	0.690830	0.049022
H35	H	0.083524	0.564662	0.956279
H36	H	-0.018871	0.527017	0.917588
H37	H	0.020095	0.653423	0.139603
H38	H	-0.076086	0.687236	0.064696
H39	H	-0.000364	0.796526	0.044473
C55	C	0.460888	0.484635	0.075551
C56	C	0.487010	0.429214	0.944865
H40	H	0.495962	0.432633	0.149673
H41	H	0.484628	0.584933	0.086379
H42	H	0.541610	0.363282	0.958377
H43	H	0.507693	0.508265	0.881312
H44	H	0.435455	0.374809	0.895289
C57	C	0.827712	0.868558	0.740849
C58	C	0.851369	0.844283	0.879458
H45	H	-0.099848	0.884179	0.686032
H46	H	0.798951	0.783003	0.691977
H47	H	0.804230	0.873039	0.950243
H48	H	-0.077600	0.898167	0.904560
H49	H	0.859404	0.739354	0.885499
C59	C	0.586305	0.288239	0.340597
C60	C	0.577179	0.281427	0.488371
H50	H	0.651147	0.259496	0.321906
H51	H	0.589372	0.388448	0.303889
H52	H	0.549099	0.188892	0.517297
H53	H	0.638639	0.290143	0.538474
H54	H	0.541039	0.361807	0.529590
C61	C	0.419685	0.820112	0.797978
C62	C	0.417031	0.826798	0.946939
H55	H	0.429425	0.915950	0.753411
H56	H	0.356167	0.798382	0.759781
H57	H	0.367046	0.891971	0.979937
H58	H	0.409048	0.732170	0.988139
H59	H	0.472400	0.862265	-0.002111
C63	C	0.751988	0.633144	0.401685
C64	C	0.705472	0.544182	0.494977
H60	H	0.714528	0.723018	0.388742
H61	H	0.811602	0.673788	0.440352
H62	H	0.727772	0.444235	0.496287
H63	H	0.639953	0.533854	0.462683
H64	H	0.711366	0.580599	0.595667
