data_NiPyC2_relax_sc211_ortho_functionalized_C-3CH3_lammps_PM
_symmetry_space_group_name_H-M	'P1'
_cell_length_a	16.251267
_cell_length_b	10.591936
_cell_length_c	10.723306
_cell_angle_alpha	90.000000
_cell_angle_beta	91.268998
_cell_angle_gamma	90.000000
_symmetry_Int_Tables_number 1

loop_
_symmetry_equiv_pos_as_xyz
'x,y,z'

loop_
_atom_site_label
_atom_site_type_symbol
_atom_site_fract_x
_atom_site_fract_y
_atom_site_fract_z
Ni1	Ni	0.135370	0.843792	0.856307
Ni2	Ni	0.388666	0.371755	0.389118
O1	O	-0.023973	0.408929	0.383182
O2	O	0.223805	0.749220	0.865027
O3	O	0.298436	0.288224	0.401542
O4	O	0.045529	0.937523	0.867559
O5	O	0.369037	0.492628	0.504395
O6	O	0.115871	0.728100	0.978380
O7	O	0.866735	0.223789	0.465874
O8	O	0.159796	0.955208	-0.019178
N1	N	0.188180	0.964847	0.733385
N2	N	-0.079729	0.222565	0.217221
N3	N	0.081562	0.726822	0.729142
N4	N	0.343638	0.486293	0.249790
C1	C	0.208827	1.068634	0.534777
C2	C	0.019194	0.209434	0.044258
H1	H	0.208955	1.039026	0.438643
H2	H	0.445584	0.206628	0.961535
C3	C	0.273839	0.144911	0.581381
C4	C	0.027377	1.078292	0.055045
C5	C	0.286753	0.135191	0.708120
C6	C	-0.033811	1.023836	0.128872
H3	H	0.710069	0.298864	0.646027
H4	H	-0.046852	0.924319	0.122959
C7	C	0.030444	0.673742	0.519590
C8	C	0.303405	0.512445	0.026981
H5	H	0.015616	0.709224	0.428266
H6	H	0.697065	0.503999	-0.009295
C9	C	0.083120	0.745649	0.602478
C10	C	0.358783	0.463610	0.125076
H7	H	0.129067	0.800346	0.563717
C11	C	0.155070	1.006813	0.622358
C12	C	-0.042202	0.276812	0.114947
H8	H	0.090643	0.993539	0.600604
C13	C	0.268195	1.014007	0.759058
C14	C	-0.057321	0.093972	0.236782
C15	C	0.021640	0.637772	0.765117
C16	C	0.284872	0.581953	0.267627
C17	C	0.012881	0.531197	0.685871
C18	C	0.269484	0.670061	0.169115
H9	H	0.411521	0.583928	0.741792
H10	H	0.246207	0.762948	0.189933
C19	C	-0.005590	0.560619	0.561890
C20	C	0.252902	0.618054	0.053715
C21	C	0.329659	0.222476	0.495011
C22	C	0.080383	1.000034	0.961646
C23	C	-0.056822	0.473569	0.475836
C24	C	0.193831	0.682804	0.956460
Ni3	Ni	0.636814	0.889991	0.890321
Ni4	Ni	0.863268	0.344204	0.351189
O9	O	0.483348	0.458545	0.403739
O10	O	0.732407	0.810810	0.902995
O11	O	0.761582	0.277486	0.344305
O12	O	0.542795	0.970342	0.906349
O13	O	0.844678	0.455736	0.476597
O14	O	0.625379	0.792521	0.023568
O15	O	0.409119	0.261377	0.518176
O16	O	0.661074	1.016424	-0.002597
N5	N	0.667809	1.000601	0.740871
N6	N	0.431960	0.244346	0.271143
N7	N	0.590581	0.750078	0.779904
N8	N	0.837935	0.475778	0.227405
C25	C	0.697514	1.014139	0.517481
C26	C	0.458580	0.183433	0.058034
H11	H	0.699111	0.966622	0.428383
H12	H	0.055297	0.258223	0.977373
C27	C	0.726259	0.138820	0.528978
C28	C	0.532727	0.122858	0.088683
C29	C	0.706758	0.197564	0.639656
C30	C	0.558076	0.129180	0.214247
H13	H	0.331116	0.196649	0.753410
H14	H	0.616680	1.089357	0.243747
C31	C	0.584655	0.636498	0.580670
C32	C	0.739572	0.533722	0.062693
H15	H	0.615211	0.610851	0.496053
H16	H	0.312768	0.485700	0.931189
C33	C	0.630094	0.703290	0.677204
C34	C	0.784338	0.442952	0.133028
H17	H	0.694621	0.722511	0.665171
H18	H	0.418185	0.431172	0.099851
C35	C	0.653300	0.959589	0.619245
C36	C	0.399968	0.212634	0.154179
H19	H	0.597003	0.910681	0.596144
H20	H	-0.051948	0.374218	0.094862
C37	C	0.706068	0.121288	0.749508
C38	C	0.509318	0.196335	0.302312
H21	H	0.535979	0.215831	0.393288
C39	C	0.520102	0.684283	0.812988
C40	C	0.846839	0.603296	0.253522
H22	H	-0.096364	0.635017	0.324501
C41	C	0.469641	0.625562	0.716948
C42	C	0.801576	0.696689	0.185389
H23	H	-0.004097	0.440342	0.723388
H24	H	0.810033	0.795617	0.207868
C43	C	0.501192	0.601121	0.597658
C44	C	0.748611	0.661155	0.086682
C45	C	0.786348	0.199733	0.436897
C46	C	0.580206	1.047448	-0.011039
C47	C	0.449022	0.529778	0.493052
C48	C	0.703061	0.757064	0.006444
C49	C	0.344131	0.924891	0.759836
C50	C	0.360835	0.872379	0.891466
H25	H	0.373325	0.770652	0.886794
H26	H	0.410982	0.920681	0.940855
H27	H	0.309867	0.889296	0.955453
C51	C	0.424705	0.991651	0.716820
H28	H	0.418976	1.024789	0.618903
H29	H	0.441477	1.073505	0.776384
H30	H	0.476550	0.924238	0.715694
C52	C	0.330629	0.821933	0.660988
H31	H	0.386897	0.796043	0.610875
H32	H	0.305735	0.733164	0.697142
H33	H	0.291275	0.860860	0.586106
C53	C	-0.006869	1.053717	0.355479
C54	C	0.041000	0.169813	0.405250
H34	H	0.047738	0.240490	0.332617
H35	H	0.105568	0.156889	0.413068
H36	H	0.021384	0.207434	0.495596
C55	C	-0.063109	0.988507	0.452139
H37	H	0.857613	0.982984	0.418157
H38	H	-0.059035	1.032861	0.545716
H39	H	-0.047295	0.889068	0.468516
C56	C	0.060904	0.953867	0.324200
H40	H	0.032724	0.868463	0.283613
H41	H	0.094159	0.920930	0.407300
H42	H	0.107730	0.991160	0.259845
C57	C	-0.064607	0.685104	0.808729
C58	C	-0.065107	0.730061	0.944586
H43	H	-0.013530	0.784855	0.975237
H44	H	0.868683	0.793045	0.962187
H45	H	-0.068788	0.648672	0.008796
C59	C	0.854399	0.577911	0.804152
H46	H	0.840433	0.545088	0.707825
H47	H	0.873934	0.496453	0.862932
H48	H	0.794844	0.611257	0.838493
C60	C	-0.097471	0.787152	0.716799
H49	H	-0.062666	0.876598	0.722992
H50	H	-0.097621	0.754339	0.619564
H51	H	0.821835	0.804139	0.727920
C61	C	0.216291	0.578872	0.364131
C62	C	0.193872	0.463402	0.443466
H52	H	0.236788	0.440063	0.520132
H53	H	0.139809	0.485890	0.499307
H54	H	0.172917	0.382949	0.385358
C63	C	0.133138	0.609392	0.293079
H55	H	0.122393	0.711767	0.284762
H56	H	0.131773	0.571267	0.197881
H57	H	0.078345	0.562866	0.328755
C64	C	0.242109	0.686735	0.449724
H58	H	0.309944	0.698701	0.454295
H59	H	0.218450	0.779401	0.416438
H60	H	0.224773	0.666993	0.545688
C65	C	0.775031	0.154728	0.846935
C66	C	0.820301	1.039413	0.900812
H61	H	0.815278	0.965990	0.832095
H62	H	-0.098172	1.052480	0.908392
H63	H	0.801461	1.008626	-0.005657
C67	C	0.739021	0.239501	0.947981
H64	H	0.762406	0.214227	0.042775
H65	H	0.755164	0.337284	0.926710
H66	H	0.671103	0.241856	0.947757
C68	C	0.845019	0.232646	0.784182
H67	H	0.871306	0.177038	0.707140
H68	H	0.824449	0.324066	0.745101
H69	H	-0.091864	0.258639	0.853695
C69	C	0.310829	0.158744	0.135190
C70	C	0.233862	0.223129	0.190285
H70	H	0.239118	0.325860	0.197165
H71	H	0.177175	0.207771	0.133348
H72	H	0.213917	0.177936	0.277011
C71	C	0.313217	1.021371	0.182950
H73	H	0.323183	1.020323	0.285732
H74	H	0.254209	0.973033	0.162418
H75	H	0.364309	0.966679	0.142515
C72	C	0.292377	0.164641	-0.004983
H76	H	0.332834	0.099352	0.948961
H77	H	0.228732	0.143326	0.965611
H78	H	0.305455	0.260437	0.959417
C73	C	0.518556	0.620914	0.936732
C74	C	0.481629	0.684220	0.049050
H79	H	0.488302	0.787641	0.050317
H80	H	0.415817	0.670642	0.050133
H81	H	0.508913	0.644833	0.136446
C75	C	0.535136	0.481459	0.941676
H82	H	0.581745	0.454925	0.872818
H83	H	0.557288	0.452080	0.035833
H84	H	0.477975	0.429905	0.916837
C76	C	0.580592	0.812583	0.312067
H85	H	0.426251	0.904781	0.412207
H86	H	0.557541	0.234432	0.805966
H87	H	0.317069	0.417506	0.715726
C77	C	0.630798	0.469395	0.285780
C78	C	0.177703	0.354713	0.833390
H88	H	0.538525	0.148605	0.600392
H89	H	0.098214	0.373449	0.201358
H90	H	0.002618	0.698547	0.175542
C79	C	0.059352	0.491921	-0.007741
H91	H	0.766962	0.742182	0.461939
H92	H	0.575214	0.363505	0.596383
H93	H	0.449900	0.344855	0.726286
C80	C	0.041579	0.185908	0.742604
H94	H	0.694066	0.476846	0.752717
H95	H	0.207416	0.560861	0.717377
H96	H	0.137806	0.297537	0.597458
