data_NiPyC2_relax_sc211_meta_functionalized_C-3CH3_lammps_PM
_symmetry_space_group_name_H-M	'P1'
_cell_length_a	15.520410
_cell_length_b	11.008977
_cell_length_c	10.527915
_cell_angle_alpha	90.000000
_cell_angle_beta	91.268998
_cell_angle_gamma	90.000000
_symmetry_Int_Tables_number 1

loop_
_symmetry_equiv_pos_as_xyz
'x,y,z'

loop_
_atom_site_label
_atom_site_type_symbol
_atom_site_fract_x
_atom_site_fract_y
_atom_site_fract_z
Ni1	Ni	0.180099	0.828210	0.818657
Ni2	Ni	0.428119	0.318382	0.308941
O1	O	0.045408	0.393317	0.354082
O2	O	0.274518	0.743082	0.828571
O3	O	0.329000	0.236542	0.322351
O4	O	0.083689	0.913264	0.838794
O5	O	0.409627	0.426297	0.436605
O6	O	0.159161	0.718277	0.940310
O7	O	-0.025160	0.188526	0.447229
O8	O	0.210987	0.933584	0.938318
N1	N	0.223901	0.940133	0.687202
N2	N	-0.003028	0.210877	0.194499
N3	N	0.130493	0.717819	0.693577
N4	N	0.378496	0.434209	0.185870
C1	C	0.220140	0.081467	0.506058
C2	C	0.123229	0.153992	0.075269
H1	H	0.183347	0.124251	0.429950
H2	H	0.478971	0.915262	0.071367
C3	C	0.310580	0.106277	0.522033
C4	C	0.085996	1.043848	0.039107
C5	C	0.347164	1.063069	0.637303
C6	C	0.005126	1.013691	0.095302
H3	H	-0.048729	1.039979	0.645970
C7	C	0.105338	0.632626	0.483244
C8	C	0.372748	0.543449	0.982287
H4	H	0.115787	0.636895	0.382015
H5	H	-0.064594	0.584162	0.940652
C9	C	0.148966	0.716178	0.566937
C10	C	0.419077	0.476184	0.080809
H6	H	0.195840	0.777421	0.529846
H7	H	0.013944	0.461881	0.107225
C11	C	0.176324	1.005098	0.597714
C12	C	0.079533	0.234673	0.155246
H8	H	0.107205	0.995996	0.592269
H9	H	0.393442	1.055520	0.201570
C13	C	0.311504	0.955711	0.686652
C14	C	-0.043228	0.111225	0.145978
H10	H	0.350867	0.904245	0.750625
H11	H	0.878881	0.094180	0.171947
C15	C	0.068147	0.640257	0.734240
C16	C	0.292927	0.463093	0.200291
H12	H	0.035448	0.659062	0.820797
H13	H	0.258865	0.428012	0.280791
C17	C	0.049629	0.532901	0.666615
C18	C	0.248628	0.542926	0.116524
H14	H	0.447563	0.686807	0.526855
H15	H	0.182924	0.568425	0.136553
C19	C	0.051098	0.541735	0.533745
C20	C	0.287784	0.586539	0.007240
C21	C	0.365661	0.171244	0.416696
C22	C	0.127887	0.971362	0.932623
C23	C	0.005811	0.450108	0.447877
C24	C	0.238924	0.676998	0.920140
Ni3	Ni	0.689414	0.804874	0.831558
Ni4	Ni	-0.050177	0.307696	0.332678
O9	O	0.527851	0.400813	0.326039
O10	O	0.784923	0.716629	0.844640
O11	O	0.838344	0.220050	0.339474
O12	O	0.594107	0.892049	0.844456
O13	O	-0.075786	0.406874	0.461549
O14	O	0.662954	0.690078	0.944969
O15	O	0.451429	0.203655	0.428478
O16	O	0.712472	0.908176	0.963989
N5	N	0.740363	0.918659	0.712961
N6	N	0.471402	0.210332	0.168285
N7	N	0.640452	0.705313	0.689808
N8	N	0.887240	0.425297	0.212450
C25	C	0.731518	1.037853	0.520490
C26	C	0.500599	1.007859	0.082031
H16	H	0.186616	0.177479	0.042948
C27	C	0.824195	1.067302	0.526861
C28	C	0.577960	1.045074	0.022864
C29	C	0.869202	1.017851	0.631207
C30	C	0.594437	0.172881	0.022146
C31	C	0.639085	0.550166	0.529006
C32	C	0.885793	0.546787	0.018737
C33	C	0.671379	0.595686	0.649282
C34	C	-0.054610	0.473080	0.111783
H17	H	0.730617	0.560106	0.689563
H18	H	0.487290	0.471780	0.079374
C35	C	0.692904	0.981735	0.627290
C36	C	0.449876	0.089874	0.156229
H19	H	0.625255	0.991037	0.641726
H20	H	0.111768	0.317608	0.181786
C37	C	0.828403	0.936508	0.716512
C38	C	0.542647	0.250745	0.101765
H21	H	0.867001	0.895982	0.791786
H22	H	0.571807	0.333618	0.131907
C39	C	0.561751	0.740885	0.635854
C40	C	0.802328	0.454566	0.225853
H23	H	0.537782	0.831297	0.649882
H24	H	0.767917	0.418417	0.304899
C41	C	0.510448	0.659526	0.559140
C42	C	0.756428	0.522732	0.133668
C43	C	0.546784	0.552058	0.513297
C44	C	0.796935	0.572914	0.030668
C45	C	0.875709	0.150681	0.430057
C46	C	0.629795	0.951460	0.941608
C47	C	0.493450	0.463815	0.421498
C48	C	0.745835	0.649650	0.931827
C49	C	0.388342	0.150993	0.733395
C50	C	0.355809	0.128750	0.870257
H25	H	0.284677	0.138688	0.871841
H26	H	0.373174	1.037408	0.906619
H27	H	0.384674	0.195183	0.937985
C51	C	0.367238	0.283049	0.701282
H28	H	0.300895	0.295022	0.663447
H29	H	0.370865	0.338639	0.787856
H30	H	0.413700	0.318189	0.632927
C52	C	0.485384	0.132099	0.733807
H31	H	0.499709	1.038916	0.764754
H32	H	0.511927	0.144281	0.638276
H33	H	0.517102	0.198068	0.798578
C53	C	-0.012483	0.888455	0.155720
C54	C	0.881763	0.844775	0.113319
H34	H	0.832269	0.914118	0.125075
H35	H	0.862288	0.764070	0.168379
H36	H	0.880183	0.822464	0.010738
C55	C	0.049547	0.789313	0.117437
H37	H	0.033492	0.766653	0.017765
H38	H	0.040897	0.703989	0.170923
H39	H	0.116976	0.818275	0.134752
C56	C	-0.007072	0.900997	0.303131
H40	H	-0.070980	0.921057	0.342973
H41	H	0.038113	0.974323	0.333379
H42	H	0.017049	0.817778	0.350316
C57	C	0.059839	0.409254	0.734493
C58	C	0.107189	0.424137	0.864394
H43	H	0.074892	0.489308	0.926587
H44	H	0.111117	0.336514	0.914948
H45	H	0.173810	0.456082	0.850072
C59	C	0.117742	0.322045	0.657295
H46	H	0.170336	0.373387	0.611730
H47	H	0.148939	0.251233	0.717805
H48	H	0.081737	0.273592	0.582164
C60	C	-0.030581	0.354590	0.756486
H49	H	-0.079541	0.426744	0.769797
H50	H	-0.052436	0.297192	0.675669
H51	H	-0.031533	0.297428	0.843183
C61	C	0.419666	0.583500	0.861501
C62	C	0.501302	0.506766	0.844579
H52	H	0.553767	0.539782	0.905943
H53	H	0.526094	0.509048	0.748642
H54	H	0.489801	0.409948	0.866617
C63	C	0.363870	0.565661	0.736051
H55	H	0.300857	0.521765	0.752450
H56	H	0.395420	0.510586	0.663945
H57	H	0.353042	0.650195	0.681571
C64	C	0.445940	0.718347	0.881869
H58	H	0.405290	0.767323	0.950288
H59	H	0.443411	0.769441	0.793052
H60	H	0.511018	0.728327	0.921302
C65	C	0.674912	1.046346	0.400647
C66	C	0.590135	0.970681	0.408525
H61	H	0.604587	0.877110	0.439682
H62	H	0.556414	0.963650	0.315568
H63	H	0.543186	1.011093	0.473888
C67	C	0.646682	0.178338	0.383616
H64	H	0.697151	0.243510	0.364033
H65	H	0.614896	0.210636	0.470440
H66	H	0.599791	0.183326	0.306500
C68	C	0.721196	0.989056	0.290193
H67	H	0.732661	0.890813	0.307537
H68	H	0.783331	1.028570	0.278843
H69	H	0.684057	0.999039	0.201316
C69	C	0.678675	0.227388	0.964673
C70	C	0.668321	0.359810	0.921805
H70	H	0.643634	0.419540	-0.004425
H71	H	0.627034	0.362908	0.835678
H72	H	0.730830	0.398093	0.892008
C71	C	0.748598	0.219825	0.066716
H73	H	0.725670	0.258433	0.156124
H74	H	0.808952	0.265363	0.037602
H75	H	0.761700	0.122978	0.081882
C72	C	0.713179	0.166022	0.845523
H76	H	0.763964	0.220817	0.800504
H77	H	0.660309	0.152497	0.775740
H78	H	0.749960	0.084840	0.868483
C73	C	0.688691	0.597164	0.419730
C74	C	0.776908	0.649582	0.444072
H79	H	0.771843	0.733826	0.501454
H80	H	0.817959	0.582704	0.494340
H81	H	0.807293	0.675234	0.354321
C75	C	0.640646	0.643443	0.305841
H82	H	0.589915	0.706583	0.334380
H83	H	0.683215	0.695429	0.243084
H84	H	0.613159	0.565353	0.254135
C76	C	0.758002	0.337107	0.591444
H85	H	0.043554	0.127398	0.782571
H86	H	0.576224	0.333708	0.634032
H87	H	0.877802	0.632863	0.686449
C77	C	0.440165	0.705336	0.232027
C78	C	0.300721	0.633322	0.418538
H88	H	0.557701	0.640602	0.087986
H89	H	-0.045061	0.634238	0.312842
H90	H	-0.087285	0.107385	0.890249
C79	C	0.391239	0.886436	0.417930
H91	H	-0.060780	0.742747	0.508523
H92	H	0.007050	0.854844	0.640776
H93	H	0.238029	1.061379	0.237111
C80	C	0.289263	0.847807	0.160181
H94	H	0.269893	0.331811	0.967314
H95	H	0.601084	0.827046	0.150396
H96	H	0.175952	0.882555	0.343852
