data_NiPyC2_relax_sc211_meta_functionalized_CH2-CH2-CH3_lammps_PM
_symmetry_space_group_name_H-M	'P1'
_cell_length_a	12.505600
_cell_length_b	12.523400
_cell_length_c	10.276800
_cell_angle_alpha	90.000000
_cell_angle_beta	91.268998
_cell_angle_gamma	90.000000
_symmetry_Int_Tables_number 1

loop_
_symmetry_equiv_pos_as_xyz
'x,y,z'

loop_
_atom_site_label
_atom_site_type_symbol
_atom_site_fract_x
_atom_site_fract_y
_atom_site_fract_z
Ni1	Ni	0.249384	0.757643	0.836726
Ni2	Ni	0.518844	0.266477	0.365885
O1	O	0.125911	0.331120	0.352817
O2	O	0.376345	0.682682	0.863154
O3	O	0.395147	0.191502	0.375788
O4	O	0.123508	0.831204	0.851431
O5	O	0.487248	0.351293	0.489090
O6	O	0.227452	0.664904	0.968487
O7	O	0.033958	0.149636	0.440112
O8	O	0.279388	0.850592	0.952922
N1	N	0.303339	0.856676	0.703310
N2	N	0.056168	0.160053	0.183219
N3	N	0.187144	0.656683	0.695069
N4	N	0.464950	0.377187	0.242399
C1	C	0.274635	0.995225	0.547694
C2	C	0.020917	0.001269	0.047334
C3	C	0.389571	0.019677	0.534991
C4	C	0.130558	0.980341	0.031114
C5	C	0.456428	0.944041	0.598440
C6	C	0.200653	0.038118	0.110354
C7	C	0.198835	0.554353	0.489797
C8	C	0.497299	0.503751	0.073078
H1	H	0.251639	0.525851	0.418301
C9	C	0.236688	0.637980	0.577830
C10	C	0.532932	0.445283	0.184830
H2	H	0.311977	0.676516	0.558643
H3	H	0.093143	0.449627	0.199530
C11	C	0.245835	0.943043	0.663195
C12	C	0.985852	0.096677	0.112325
H4	H	0.166213	0.953024	0.695834
H5	H	0.484180	0.230146	0.063817
C13	C	0.410942	0.857978	0.673214
C14	C	0.164479	0.133358	0.178895
H6	H	0.463622	0.799096	0.713899
H7	H	0.221501	0.178814	0.236321
C15	C	0.080844	0.623383	0.698681
C16	C	0.361758	0.414471	0.248567
H8	H	0.025438	0.669388	0.753212
H9	H	0.307532	0.376465	0.313379
C17	C	0.040624	0.535606	0.617380
C18	C	0.331271	0.514061	0.184809
H10	H	0.259304	0.555133	0.212378
C19	C	0.101616	0.498129	0.511482
C20	C	0.390550	0.553086	0.077933
C21	C	0.442290	0.127297	0.468543
C22	C	0.176445	0.885910	0.945396
C23	C	0.070742	0.384582	0.445185
C24	C	0.331727	0.632264	0.967033
Ni3	Ni	0.753553	0.778812	0.851025
Ni4	Ni	0.002334	0.253859	0.326637
O9	O	0.642453	0.341837	0.392715
O10	O	0.871402	0.697790	0.877921
O11	O	0.880052	0.175357	0.336039
O12	O	0.636945	0.864007	0.862507
O13	O	0.971963	0.339368	0.452467
O14	O	0.718819	0.690235	0.984283
O15	O	0.546646	0.159958	0.484498
O16	O	0.793086	0.877182	0.968051
N5	N	0.808286	0.870323	0.707100
N6	N	0.577725	0.173734	0.223476
N7	N	0.693885	0.674349	0.719276
N8	N	0.945670	0.366679	0.205958
C25	C	0.798773	0.954206	0.489585
C26	C	0.568599	0.081794	0.010223
H11	H	0.771186	0.945710	0.391055
H12	H	0.963612	0.942268	0.019092
C27	C	0.877905	0.031618	0.523892
C28	C	0.654521	0.013347	0.044598
C29	C	0.913324	0.027044	0.654527
C30	C	0.705814	0.033690	0.164829
H13	H	0.542015	0.951770	0.592975
H14	H	0.778050	0.990522	0.189934
C31	C	0.710496	0.563305	0.521929
C32	C	0.975283	0.524193	0.076473
H15	H	0.755298	0.543560	0.436519
C33	C	0.750067	0.644714	0.610206
C34	C	0.010882	0.448263	0.169724
H16	H	0.828226	0.678592	0.594342
H17	H	0.614607	0.435125	0.203723
C35	C	0.755695	0.884153	0.588040
C36	C	0.543337	0.173000	0.094479
H18	H	0.683760	0.839732	0.565625
H19	H	0.902207	0.117287	0.107837
C37	C	0.896089	0.932327	0.729531
C38	C	0.663562	0.109547	0.254941
H20	H	0.944066	0.917882	0.814681
H21	H	0.698364	0.114531	0.351168
C39	C	0.593302	0.631907	0.733123
C40	C	0.838627	0.394713	0.206638
H22	H	0.547567	0.659998	0.811767
H23	H	0.782444	0.341118	0.248590
C41	C	0.554673	0.544290	0.651463
C42	C	0.802754	0.499430	0.158285
H24	H	0.736207	0.539671	0.200571
C43	C	0.619115	0.503343	0.552257
C44	C	0.867163	0.558040	0.073773
C45	C	0.932830	0.111112	0.423530
C46	C	0.696091	0.921699	0.952853
C47	C	0.586560	0.394441	0.483511
C48	C	0.819835	0.650594	0.979913
C49	C	0.207591	0.953926	0.431835
C50	C	0.108987	0.883666	0.459525
H25	H	0.258397	0.898159	0.377569
H26	H	0.178591	0.023071	0.377057
C51	C	0.047904	0.850943	0.335811
H27	H	0.054668	0.926266	0.523237
H28	H	0.133938	0.809924	0.510335
H29	H	0.007734	0.921379	0.292041
H30	H	0.985541	0.791521	0.360215
H31	H	0.102593	0.814475	0.264613
C52	C	0.305215	0.981371	0.137385
C53	C	0.384155	0.013272	0.231350
H32	H	0.350205	0.987216	0.048755
H33	H	0.284995	0.897759	0.165199
C54	C	0.468773	0.926194	0.259922
H34	H	0.339223	0.032226	0.310033
H35	H	0.411494	0.087365	0.198983
H36	H	0.431857	0.856229	0.307799
H37	H	0.532196	0.956210	0.326894
H38	H	0.505135	0.897759	0.168806
C55	C	0.941451	0.468858	0.645902
C56	C	0.857599	0.460433	0.750434
H39	H	0.977642	0.389197	0.655131
H40	H	0.893516	0.476218	0.555188
C57	C	0.879198	0.369685	0.846250
H41	H	0.780744	0.439338	0.702981
H42	H	0.843106	0.534853	0.795502
H43	H	0.846478	0.298661	0.801931
H44	H	0.846149	0.381066	0.942482
H45	H	0.962919	0.353395	0.859353
C58	C	0.528149	0.448960	0.953993
C59	C	0.641475	0.404896	0.941873
H46	H	0.474017	0.379895	0.948472
H47	H	0.515564	0.507487	0.882947
C60	C	0.645154	0.307032	0.853671
H48	H	0.692104	0.470002	0.905945
H49	H	0.674446	0.374434	0.033983
H50	H	0.648669	0.327019	0.749054
H51	H	0.708030	0.250357	0.885867
H52	H	0.577086	0.258039	0.870435
C61	C	0.929200	0.127935	0.725852
C62	C	0.038081	0.130716	0.791026
H53	H	0.867521	0.129883	0.802191
H54	H	0.917462	0.197786	0.660461
C63	C	0.122506	0.173042	0.704252
H55	H	0.063890	0.050377	0.817372
H56	H	0.033535	0.178164	0.880596
H57	H	0.101786	0.253084	0.666855
H58	H	0.133688	0.120147	0.622190
H59	H	0.196493	0.171981	0.763298
C64	C	0.499699	0.049163	0.894887
C65	C	0.398857	0.113625	0.863251
H60	H	0.552579	0.044544	0.809737
H61	H	0.474208	0.965417	0.910657
C66	C	0.417828	0.191054	0.753869
H62	H	0.335424	0.057742	0.832677
H63	H	0.364222	0.154813	0.947789
H64	H	0.353629	0.186313	0.679420
H65	H	0.420693	0.270248	0.796746
H66	H	0.494714	0.180177	0.705587
C67	C	0.447322	0.488123	0.664268
C68	C	0.349573	0.471305	0.744964
H67	H	0.479102	0.408273	0.688544
H68	H	0.411122	0.502150	0.565938
C69	C	0.273366	0.389908	0.683665
H69	H	0.313253	0.543714	0.753393
H70	H	0.356237	0.447531	0.845289
H71	H	0.291945	0.364161	0.583275
H72	H	0.191673	0.415736	0.691091
H73	H	0.269428	0.322261	0.747354
C70	C	0.042255	0.543108	0.966466
C71	C	0.142358	0.472813	0.957583
H74	H	0.056594	0.629582	0.968357
H75	H	0.998312	0.529857	0.880467
C72	C	0.142131	0.351490	0.961661
H76	H	0.190039	0.493883	0.038406
H77	H	0.181194	0.497988	0.870796
H78	H	0.080568	0.314903	0.021413
H79	H	0.221540	0.321050	0.995408
H80	H	0.128788	0.324505	0.863170
