data_NiPyC2_relax_sc211_meta_functionalized_CH2-CH2-CH3_lammps_PM
_symmetry_space_group_name_H-M	'P1'
_cell_length_a	14.468493
_cell_length_b	10.101011
_cell_length_c	11.490935
_cell_angle_alpha	90.000000
_cell_angle_beta	91.268998
_cell_angle_gamma	90.000000
_symmetry_Int_Tables_number 1

loop_
_symmetry_equiv_pos_as_xyz
'x,y,z'

loop_
_atom_site_label
_atom_site_type_symbol
_atom_site_fract_x
_atom_site_fract_y
_atom_site_fract_z
Ni1	Ni	0.199765	0.863830	0.778256
Ni2	Ni	0.443182	0.383138	0.294974
O1	O	0.043938	0.471597	0.282078
O2	O	0.304569	0.772162	0.798835
O3	O	0.340620	0.287853	0.310216
O4	O	0.094209	0.955666	0.788328
O5	O	0.411428	0.507663	0.387260
O6	O	0.172425	0.748943	0.887465
O7	O	-0.026700	0.258964	0.377611
O8	O	0.226165	0.977840	0.886577
N1	N	0.251201	0.981581	0.664699
N2	N	-0.000521	0.247544	0.148755
N3	N	0.149360	0.743706	0.654660
N4	N	0.392951	0.486304	0.168990
C1	C	0.233102	0.130579	0.504947
C2	C	-0.010490	1.101820	-0.019178
C3	C	0.332179	0.130924	0.484407
C4	C	0.085981	1.083496	-0.019578
C5	C	0.385995	1.052241	0.558840
C6	C	0.134127	1.115760	0.083166
C7	C	0.136579	0.670412	0.451225
C8	C	0.407531	0.614883	-0.003841
H1	H	0.167757	0.665662	0.366487
C9	C	0.184179	0.739076	0.544288
C10	C	0.444742	0.566365	0.102575
H2	H	0.245044	0.794747	0.524478
H3	H	0.879376	0.664333	0.243002
C11	C	0.201402	1.075962	0.609671
C12	C	-0.052655	0.171388	0.073255
H4	H	0.132467	1.095217	0.636008
H5	H	0.369073	0.206385	0.117033
C13	C	0.345095	0.980761	0.649521
C14	C	0.094808	0.220138	0.154581
H6	H	0.389378	0.938660	0.714855
H7	H	0.140269	0.286861	0.201097
C15	C	0.061874	0.692340	0.669820
C16	C	0.298254	0.496048	0.158483
H8	H	0.028839	0.708730	0.750568
H9	H	0.255209	0.459477	0.226780
C17	C	0.006462	0.640255	0.574897
C18	C	0.255737	0.566336	0.066265
H10	H	0.182174	0.579237	0.065617
C19	C	0.048531	0.613940	0.467312
C20	C	0.309143	0.626454	-0.018719
C21	C	0.381931	0.228689	0.401542
C22	C	0.137045	1.019205	0.877568
C23	C	-0.000966	0.533842	0.368610
C24	C	0.260663	0.706128	0.882999
Ni3	Ni	0.677909	0.913257	0.782810
Ni4	Ni	-0.057306	0.369618	0.265728
O9	O	0.546671	0.482737	0.306272
O10	O	0.779016	0.811750	0.798449
O11	O	0.823854	0.269635	0.278336
O12	O	0.577117	1.013186	0.797558
O13	O	0.894013	0.484979	0.374971
O14	O	0.647030	0.796793	0.891582
O15	O	0.470345	0.276476	0.417262
O16	O	0.710739	1.025422	0.895238
N5	N	0.727338	1.032501	0.665227
N6	N	0.495251	0.256899	0.189871
N7	N	0.626371	0.798365	0.659531
N8	N	0.869652	0.485868	0.143234
C25	C	0.724243	1.114166	0.465693
C26	C	0.479002	0.159884	-0.001206
H11	H	0.687686	1.118126	0.382856
H12	H	-0.053512	1.052221	0.917505
C27	C	0.817042	0.156097	0.474945
C28	C	0.576222	0.137375	-0.007502
C29	C	0.859320	0.150718	0.586936
C30	C	0.629948	0.173488	0.091181
H13	H	0.459724	1.051033	0.551005
H14	H	0.702866	0.151934	0.094759
C31	C	0.631307	0.702865	0.464107
C32	C	0.828615	0.704879	0.071182
H15	H	0.668738	0.689437	0.384400
C33	C	0.673216	0.773972	0.558562
C34	C	0.855735	0.619023	0.163458
H16	H	0.739522	0.818612	0.546111
H17	H	0.517813	0.576597	0.121283
C35	C	0.678316	1.064715	0.565290
C36	C	0.441473	0.200731	0.106643
H18	H	0.607075	1.036579	0.556703
H19	H	0.859288	0.148473	0.092773
C37	C	0.817826	1.071130	0.674762
C38	C	0.589136	0.239851	0.185932
H20	H	0.858457	1.037421	0.748077
H21	H	0.633014	0.279388	0.254684
C39	C	0.535956	0.758081	0.665259
C40	C	0.818564	0.432452	0.051796
H22	H	0.494198	0.796458	0.732421
H23	H	0.798749	0.331279	0.053414
C41	C	0.496739	0.669838	0.581223
C42	C	0.775978	0.514314	-0.035235
H24	H	0.745802	0.468781	0.888222
C43	C	0.543721	0.645408	0.476095
C44	C	0.777527	0.653345	-0.024586
C45	C	0.868377	0.210773	0.368993
C46	C	0.623725	1.074774	0.886438
C47	C	0.498114	0.558666	0.379073
C48	C	0.732027	0.744456	0.881485
C49	C	0.160311	0.144233	0.410202
C50	C	0.092240	1.021066	0.412984
H25	H	0.192461	0.158134	0.328299
H26	H	0.125206	0.238345	0.428320
C51	C	0.038468	0.971504	0.305998
H27	H	0.041238	1.031768	0.482242
H28	H	0.133593	0.935513	0.438002
H29	H	-0.008882	1.045064	0.269821
H30	H	-0.005602	0.887412	0.333349
H31	H	0.082818	0.931411	0.237992
C52	C	0.221367	1.028640	0.112622
C53	C	0.273607	0.986179	0.224288
H32	H	0.275855	1.064062	0.056309
H33	H	0.200304	0.928751	0.081176
C54	C	0.347928	0.881937	0.201422
H34	H	0.228806	0.941666	0.288930
H35	H	0.311560	1.069863	0.258409
H36	H	0.314738	0.784988	0.185163
H37	H	0.394138	0.871686	0.279464
H38	H	0.390623	0.909323	0.125909
C55	C	0.884204	0.655098	0.580370
C56	C	0.834611	0.551958	0.656862
H39	H	0.850793	0.663544	0.493125
H40	H	0.873004	0.754032	0.619504
C57	C	0.765505	0.459035	0.595340
H41	H	0.793310	0.603195	0.720310
H42	H	0.883602	0.495846	0.710791
H43	H	0.788870	0.422247	0.511460
H44	H	0.698555	0.507451	0.579469
H45	H	0.752204	0.372921	0.652506
C58	C	0.470675	0.619759	0.896579
C59	C	0.542908	0.505964	0.900235
H46	H	0.432290	0.618575	0.815457
H47	H	0.503512	0.716514	0.905536
C60	C	0.575577	0.459714	0.782289
H48	H	0.602122	0.540202	-0.046470
H49	H	0.517355	0.417290	0.945325
H50	H	0.617358	0.538258	0.742693
H51	H	0.619512	0.370371	0.793690
H52	H	0.516782	0.431062	0.724798
C61	C	-0.043768	0.244024	0.617410
C62	C	-0.021918	0.256611	0.746739
H53	H	-0.055683	0.342826	0.580033
H54	H	0.018576	0.209789	0.575390
C63	C	0.058197	0.349047	0.772501
H55	H	0.002425	0.158478	0.771287
H56	H	0.898935	0.285627	0.797059
H57	H	0.039841	0.453281	0.759794
H58	H	0.112941	0.324582	0.711671
H59	H	0.083475	0.336097	0.863674
C64	C	0.417308	0.161653	0.891861
C65	C	0.342210	0.269984	0.899590
H60	H	0.458241	0.183168	0.813497
H61	H	0.385446	1.062735	0.883043
C66	C	0.281140	0.273851	0.794491
H62	H	0.294030	0.257924	-0.028225
H63	H	0.374670	0.367710	0.909670
H64	H	0.227414	0.200140	0.800492
H65	H	0.245607	0.370543	0.794348
H66	H	0.321981	0.255625	0.716467
C67	C	0.399208	0.618573	0.588703
C68	C	0.327788	0.536618	0.653165
H67	H	0.429257	0.519719	0.572587
H68	H	0.362225	0.668562	0.516053
C69	C	0.267996	0.454157	0.567711
H69	H	0.277404	0.595279	0.694976
H70	H	0.361100	0.473803	0.720319
H71	H	0.262593	0.496433	0.479365
H72	H	0.197063	0.440726	0.598830
H73	H	0.301277	0.359531	0.558075
C70	C	0.890949	0.817810	0.050660
C71	C	-0.002704	0.772911	-0.011464
H74	H	0.909546	0.865740	0.134645
H75	H	0.852741	0.893708	-0.000102
C72	C	0.012413	0.621778	-0.028675
H76	H	0.057739	0.812565	0.038177
H77	H	-0.005643	0.819887	0.902367
H78	H	-0.043262	0.577010	0.918410
H79	H	0.025471	0.572097	0.055482
H80	H	0.071628	0.593380	0.919907
