data_NiPyC2_relax_sc211_ortho_functionalized_CH2-CH2-CH3_lammps_PM
_symmetry_space_group_name_H-M	'P1'
_cell_length_a	16.325954
_cell_length_b	10.837520
_cell_length_c	9.976079
_cell_angle_alpha	90.000000
_cell_angle_beta	91.268998
_cell_angle_gamma	90.000000
_symmetry_Int_Tables_number 1

loop_
_symmetry_equiv_pos_as_xyz
'x,y,z'

loop_
_atom_site_label
_atom_site_type_symbol
_atom_site_fract_x
_atom_site_fract_y
_atom_site_fract_z
Ni1	Ni	0.145944	0.840953	0.859717
Ni2	Ni	0.371608	0.350152	0.369530
O1	O	-0.014693	0.425875	0.358655
O2	O	0.229541	0.741307	0.863543
O3	O	0.277175	0.268350	0.378865
O4	O	0.059937	0.941821	0.871869
O5	O	0.347616	0.473104	0.486106
O6	O	0.123597	0.744007	0.993605
O7	O	-0.065774	0.223364	0.495665
O8	O	0.178020	0.956390	0.981961
N1	N	0.194873	0.940040	0.727322
N2	N	-0.058912	0.213056	0.223271
N3	N	0.091128	0.724701	0.732564
N4	N	0.329959	0.452746	0.228430
C1	C	0.187418	0.079561	0.538812
C2	C	0.005098	0.188907	1.004168
H1	H	0.155993	0.109787	0.448196
H2	H	0.433910	0.150766	0.915392
C3	C	0.262818	0.133171	0.578231
C4	C	0.062748	0.103020	0.054168
C5	C	0.295808	0.102101	0.702409
C6	C	0.065102	0.085271	0.191304
H3	H	-0.101684	0.100648	0.739613
H4	H	0.107858	1.019080	0.234419
C7	C	0.077201	0.625032	0.514149
C8	C	0.310597	0.538080	1.009482
H5	H	0.103343	0.603216	0.418804
H6	H	0.806030	0.539185	0.922504
C9	C	0.121353	0.702047	0.607184
C10	C	0.364674	0.490955	0.110694
H7	H	0.180531	0.738026	0.580430
H8	H	-0.079859	0.457391	0.093522
C11	C	0.151266	0.989045	0.621096
C12	C	-0.062934	0.227769	0.084202
H9	H	0.089508	0.957811	0.598994
H10	H	0.339151	0.248056	0.077689
C13	C	0.271923	0.991860	0.763758
C14	C	0.002487	0.133384	0.272177
H11	H	-0.001839	0.092088	0.369328
C15	C	0.021231	0.657339	0.769619
C16	C	0.253109	0.496030	0.258818
H12	H	0.225951	0.472652	0.353095
C17	C	-0.030466	0.606318	0.670967
C18	C	0.211262	0.576868	0.176547
H13	H	0.393935	0.609547	0.712827
H14	H	0.160958	0.629017	0.215085
C19	C	-0.000099	0.576543	0.547706
C20	C	0.236401	0.593893	0.048186
C21	C	0.310361	0.213067	0.485147
C22	C	0.103039	1.009069	0.960894
C23	C	-0.048189	0.489196	0.457751
C24	C	0.193673	0.685499	0.962588
Ni3	Ni	0.631461	0.849234	0.869483
Ni4	Ni	-0.102523	0.328647	0.363639
O9	O	0.463858	0.433657	0.382485
O10	O	0.713940	0.749186	0.891007
O11	O	0.801358	0.232890	0.388493
O12	O	0.544765	0.950725	0.867764
O13	O	0.865713	0.437763	0.491027
O14	O	0.595326	0.734594	0.990845
O15	O	0.387588	0.253892	0.508871
O16	O	0.649562	0.954296	1.006704
N5	N	0.694766	0.959869	0.758673
N6	N	0.418901	0.220697	0.247372
N7	N	0.583631	0.745570	0.720830
N8	N	0.818100	0.437008	0.241510
C25	C	0.720781	1.044916	0.540615
C26	C	0.450895	0.151991	0.019575
H15	H	0.701147	1.050397	0.436333
H16	H	0.003365	0.207783	0.897398
C27	C	0.797558	0.091742	0.579753
C28	C	0.526589	0.097672	0.062991
C29	C	0.823089	1.072967	0.711162
C30	C	0.548253	0.113900	0.196425
H17	H	0.347491	0.152984	0.741878
H18	H	0.606228	1.077091	0.233354
C31	C	0.546582	0.659103	0.499503
C32	C	0.789772	0.533944	0.027048
H19	H	0.558667	0.651704	0.394410
H20	H	0.332150	0.550990	0.908839
C33	C	0.606428	0.715678	0.588964
C34	C	0.845250	0.477933	0.121842
C35	C	0.667147	0.992995	0.635087
C36	C	0.397161	0.211424	0.113454
H21	H	0.607191	0.963514	0.602442
C37	C	0.775525	0.997322	0.800207
C38	C	0.488827	0.153348	0.289406
C39	C	0.504769	0.712142	0.756097
C40	C	0.739161	0.479753	0.280657
H22	H	0.481298	0.743133	0.849657
C41	C	0.452101	0.639527	0.674684
C42	C	0.697900	0.573422	0.202711
H23	H	-0.087504	0.564996	0.700897
H24	H	0.643616	0.616774	0.239211
C43	C	0.473198	0.609324	0.546493
C44	C	0.717186	0.590388	0.069491
C45	C	0.843217	0.173351	0.481703
C46	C	0.577483	1.010683	0.971808
C47	C	0.426710	0.509886	0.466968
C48	C	0.672231	0.683663	0.976841
C49	C	0.343532	0.915725	0.833304
C50	C	0.344952	0.856254	0.979636
H25	H	0.400004	0.969973	0.828225
H26	H	0.355094	0.840315	0.761008
C51	C	0.407917	0.881237	0.089798
H27	H	0.357450	0.758214	0.961231
H28	H	0.289070	0.862211	0.034980
H29	H	0.470340	0.867169	0.056019
H30	H	0.400481	0.810833	0.169858
H31	H	0.395231	0.968487	0.141296
C52	C	0.842970	0.238420	1.006604
C53	C	0.760068	0.219016	0.071211
H32	H	0.844602	0.318932	0.938417
H33	H	0.844759	0.164422	0.935566
C54	C	0.691050	0.262384	0.977864
H34	H	0.750140	0.122163	0.093020
H35	H	0.753466	0.262239	0.167261
H36	H	0.680394	0.194963	0.896126
H37	H	0.635804	0.272752	0.037629
H38	H	0.703505	0.352583	0.931030
C55	C	0.012307	0.599136	0.907295
C56	C	-0.027396	0.688205	1.006464
H39	H	0.068885	0.552620	0.942907
H40	H	-0.028500	0.517298	0.899465
C57	C	-0.003440	0.665301	0.154667
H41	H	-0.092597	0.684274	0.990110
H42	H	-0.014280	0.784223	0.980389
H43	H	0.029209	0.576444	0.168321
H44	H	-0.058297	0.663045	0.217623
H45	H	0.035835	0.741119	0.194386
C58	C	0.451679	0.538942	0.110228
C59	C	0.513699	0.446168	0.060157
H46	H	0.470747	0.576388	0.208777
H47	H	0.455153	0.620779	0.044042
C60	C	0.500075	0.411875	0.913018
H48	H	0.517081	0.365501	0.126428
H49	H	0.574409	0.487964	0.068253
H50	H	0.435168	0.389980	0.888302
H51	H	0.537739	0.331088	0.888459
H52	H	0.521297	0.487541	0.849206
C61	C	0.829625	0.923966	0.906679
C62	C	0.812244	0.894781	0.059549
H53	H	-0.096313	0.969834	0.909486
H54	H	0.847035	0.836553	0.858386
C63	C	-0.106808	0.925830	0.160511
H55	H	0.801973	0.796055	0.072784
H56	H	0.761145	0.934799	0.108226
H57	H	-0.102548	0.854736	0.239455
H58	H	0.862394	1.010397	0.214117
H59	H	-0.046931	0.933452	0.114197
C64	C	0.495508	0.095093	0.425747
C65	C	0.539610	0.182736	0.524391
H60	H	0.435411	1.059929	0.458158
H61	H	0.531947	1.008746	0.419923
C66	C	0.516539	0.161011	0.670174
H62	H	0.605374	0.182380	0.510334
H63	H	0.526513	0.278146	0.499078
H64	H	0.476782	0.236574	0.704877
H65	H	0.483725	1.072469	0.681458
H66	H	0.571406	0.160888	0.736702
C67	C	0.687726	0.746937	0.524519
C68	C	0.770638	0.742384	0.597902
H67	H	0.695769	0.677513	0.445373
H68	H	0.679533	0.829060	0.460450
C69	C	0.838611	0.781633	0.503445
H69	H	0.773281	0.802562	0.680523
H70	H	0.783493	0.653285	0.645309
H71	H	0.820467	0.864378	0.444925
H72	H	-0.091547	0.807103	0.561085
H73	H	0.851346	0.706544	0.431528
C70	C	0.683976	0.408677	0.380918
C71	C	0.706980	0.419779	0.532388
H74	H	0.673673	0.312013	0.349637
H75	H	0.621022	0.445858	0.369699
C72	C	0.639562	0.422015	0.635788
H76	H	0.739297	0.505652	0.544169
H77	H	0.747309	0.344591	0.566386
H78	H	0.639708	0.334663	0.692672
H79	H	0.578783	0.437014	0.591158
H80	H	0.651932	0.495529	0.711106
