data_NiPyC2_relax_sc211_meta_functionalized_CH2-CH2-CH3_lammps_PM
_symmetry_space_group_name_H-M	'P1'
_cell_length_a	12.733194
_cell_length_b	12.523400
_cell_length_c	10.276800
_cell_angle_alpha	90.000000
_cell_angle_beta	91.268998
_cell_angle_gamma	90.000000
_symmetry_Int_Tables_number 1

loop_
_symmetry_equiv_pos_as_xyz
'x,y,z'

loop_
_atom_site_label
_atom_site_type_symbol
_atom_site_fract_x
_atom_site_fract_y
_atom_site_fract_z
Ni1	Ni	0.244926	0.757643	0.836726
Ni2	Ni	0.509570	0.266477	0.365885
O1	O	0.123660	0.331120	0.352817
O2	O	0.369618	0.682682	0.863154
O3	O	0.388084	0.191502	0.375788
O4	O	0.121300	0.831204	0.851431
O5	O	0.478539	0.351293	0.489090
O6	O	0.223386	0.664904	0.968487
O7	O	0.033351	0.149636	0.440112
O8	O	0.274395	0.850592	0.952922
N1	N	0.297917	0.856676	0.703310
N2	N	0.055164	0.160053	0.183219
N3	N	0.183799	0.656683	0.695069
N4	N	0.456639	0.377187	0.242399
C1	C	0.269726	0.995225	0.547694
C2	C	0.020543	0.001269	0.047334
C3	C	0.382608	0.019677	0.534991
C4	C	0.128224	0.980341	0.031114
C5	C	0.448270	0.944041	0.598440
C6	C	0.197066	0.038118	0.110354
C7	C	0.195281	0.554353	0.489797
C8	C	0.488410	0.503751	0.073078
H1	H	0.247142	0.525851	0.418301
C9	C	0.232457	0.637980	0.577830
C10	C	0.523406	0.445283	0.184830
H2	H	0.306401	0.676516	0.558643
H3	H	0.091478	0.449627	0.199530
C11	C	0.241441	0.943043	0.663195
C12	C	0.968230	0.096677	0.112325
H4	H	0.163242	0.953024	0.695834
H5	H	0.475526	0.230146	0.063817
C13	C	0.403597	0.857978	0.673214
C14	C	0.161539	0.133358	0.178895
H6	H	0.455335	0.799096	0.713899
H7	H	0.217542	0.178814	0.236321
C15	C	0.079399	0.623383	0.698681
C16	C	0.355292	0.414471	0.248567
H8	H	0.024983	0.669388	0.753212
H9	H	0.302035	0.376465	0.313379
C17	C	0.039898	0.535606	0.617380
C18	C	0.325350	0.514061	0.184809
H10	H	0.254669	0.555133	0.212378
C19	C	0.099800	0.498129	0.511482
C20	C	0.383570	0.553086	0.077933
C21	C	0.434385	0.127297	0.468543
C22	C	0.173292	0.885910	0.945396
C23	C	0.069478	0.384582	0.445185
C24	C	0.325797	0.632264	0.967033
Ni3	Ni	0.740084	0.778812	0.851025
Ni4	Ni	0.002292	0.253859	0.326637
O9	O	0.630970	0.341837	0.392715
O10	O	0.855827	0.697790	0.877921
O11	O	0.864322	0.175357	0.336039
O12	O	0.625560	0.864007	0.862507
O13	O	0.954590	0.339368	0.452467
O14	O	0.705971	0.690235	0.984283
O15	O	0.536875	0.159958	0.484498
O16	O	0.778910	0.877182	0.968051
N5	N	0.793839	0.870323	0.707100
N6	N	0.567399	0.173734	0.223476
N7	N	0.681482	0.674349	0.719276
N8	N	0.928767	0.366679	0.205958
C25	C	0.784496	0.954206	0.489585
C26	C	0.558436	0.081794	0.010223
H11	H	0.757402	0.945710	0.391055
H12	H	0.946388	0.942268	0.019092
C27	C	0.862214	0.031618	0.523892
C28	C	0.642822	0.013347	0.044598
C29	C	0.896999	0.027044	0.654527
C30	C	0.693198	0.033690	0.164829
H13	H	0.532327	0.951770	0.592975
H14	H	0.764144	0.990522	0.189934
C31	C	0.697796	0.563305	0.521929
C32	C	0.957851	0.524193	0.076473
H15	H	0.741798	0.543560	0.436519
C33	C	0.736660	0.644714	0.610206
C34	C	0.010688	0.448263	0.169724
H16	H	0.813423	0.678592	0.594342
H17	H	0.603621	0.435125	0.203723
C35	C	0.742188	0.884153	0.588040
C36	C	0.533625	0.173000	0.094479
H18	H	0.671539	0.839732	0.565625
H19	H	0.886081	0.117287	0.107837
C37	C	0.880073	0.932327	0.729531
C38	C	0.651702	0.109547	0.254941
H20	H	0.927192	0.917882	0.814681
H21	H	0.685882	0.114531	0.351168
C39	C	0.582697	0.631907	0.733123
C40	C	0.823637	0.394713	0.206638
H22	H	0.537780	0.659998	0.811767
H23	H	0.768459	0.341118	0.248590
C41	C	0.544759	0.544290	0.651463
C42	C	0.788406	0.499430	0.158285
H24	H	0.723048	0.539671	0.200571
C43	C	0.608049	0.503343	0.552257
C44	C	0.851663	0.558040	0.073773
C45	C	0.916156	0.111112	0.423530
C46	C	0.683649	0.921699	0.952853
C47	C	0.576076	0.394441	0.483511
C48	C	0.805181	0.650594	0.979913
C49	C	0.203881	0.953926	0.431835
C50	C	0.107039	0.883666	0.459525
H25	H	0.253779	0.898159	0.377569
H26	H	0.175399	0.023071	0.377057
C51	C	0.047047	0.850943	0.335811
H27	H	0.053691	0.926266	0.523237
H28	H	0.131544	0.809924	0.510335
H29	H	0.007596	0.921379	0.292041
H30	H	0.967925	0.791521	0.360215
H31	H	0.100759	0.814475	0.264613
C52	C	0.299760	0.981371	0.137385
C53	C	0.377289	0.013272	0.231350
H32	H	0.343946	0.987216	0.048755
H33	H	0.279901	0.897759	0.165199
C54	C	0.460394	0.926194	0.259922
H34	H	0.333159	0.032226	0.310033
H35	H	0.404139	0.087365	0.198983
H36	H	0.424138	0.856229	0.307799
H37	H	0.522683	0.956210	0.326894
H38	H	0.496106	0.897759	0.168806
C55	C	0.924623	0.468858	0.645902
C56	C	0.842271	0.460433	0.750434
H39	H	0.960168	0.389197	0.655131
H40	H	0.877546	0.476218	0.555188
C57	C	0.863483	0.369685	0.846250
H41	H	0.766789	0.439338	0.702981
H42	H	0.828037	0.534853	0.795502
H43	H	0.831348	0.298661	0.801931
H44	H	0.831025	0.381066	0.942482
H45	H	0.945708	0.353395	0.859353
C58	C	0.518709	0.448960	0.953993
C59	C	0.630009	0.404896	0.941873
H46	H	0.465544	0.379895	0.948472
H47	H	0.506348	0.507487	0.882947
C60	C	0.633623	0.307032	0.853671
H48	H	0.679733	0.470002	0.905945
H49	H	0.662391	0.374434	0.033983
H50	H	0.637074	0.327019	0.749054
H51	H	0.695374	0.250357	0.885867
H52	H	0.566771	0.258039	0.870435
C61	C	0.912591	0.127935	0.725852
C62	C	0.037400	0.130716	0.791026
H53	H	0.852015	0.129883	0.802191
H54	H	0.901064	0.197786	0.660461
C63	C	0.120317	0.173042	0.704252
H55	H	0.062748	0.050377	0.817372
H56	H	0.032935	0.178164	0.880596
H57	H	0.099966	0.253084	0.666855
H58	H	0.131298	0.120147	0.622190
H59	H	0.192981	0.171981	0.763298
C64	C	0.490767	0.049163	0.894887
C65	C	0.391727	0.113625	0.863251
H60	H	0.542702	0.044544	0.809737
H61	H	0.465732	0.965417	0.910657
C66	C	0.410360	0.191054	0.753869
H62	H	0.329429	0.057742	0.832677
H63	H	0.357712	0.154813	0.947789
H64	H	0.347308	0.186313	0.679420
H65	H	0.413174	0.270248	0.796746
H66	H	0.485872	0.180177	0.705587
C67	C	0.439327	0.488123	0.664268
C68	C	0.343325	0.471305	0.744964
H67	H	0.470539	0.408273	0.688544
H68	H	0.403773	0.502150	0.565938
C69	C	0.268480	0.389908	0.683665
H69	H	0.307654	0.543714	0.753393
H70	H	0.349869	0.447531	0.845289
H71	H	0.286727	0.364161	0.583275
H72	H	0.188247	0.415736	0.691091
H73	H	0.264613	0.322261	0.747354
C70	C	0.041500	0.543108	0.966466
C71	C	0.139813	0.472813	0.957583
H74	H	0.055583	0.629582	0.968357
H75	H	0.980468	0.529857	0.880467
C72	C	0.139591	0.351490	0.961661
H76	H	0.186642	0.493883	0.038406
H77	H	0.177955	0.497988	0.870796
H78	H	0.079128	0.314903	0.021413
H79	H	0.217580	0.321050	0.995408
H80	H	0.126486	0.324505	0.863170
