data_NiPyC2_relax_sc211_ortho_functionalized_PH2_lammps_PM
_symmetry_space_group_name_H-M	'P1'
_cell_length_a	12.505600
_cell_length_b	12.523400
_cell_length_c	10.276800
_cell_angle_alpha	90.000000
_cell_angle_beta	91.268998
_cell_angle_gamma	90.000000
_symmetry_Int_Tables_number 1

loop_
_symmetry_equiv_pos_as_xyz
'x,y,z'

loop_
_atom_site_label
_atom_site_type_symbol
_atom_site_fract_x
_atom_site_fract_y
_atom_site_fract_z
Ni1	Ni	0.267852	0.763737	0.869267
Ni2	Ni	0.495731	0.244022	0.333663
O1	O	0.123376	0.328156	0.393306
O2	O	0.394354	0.693779	0.892150
O3	O	0.388867	0.147124	0.335148
O4	O	0.141572	0.836410	0.881000
O5	O	0.441852	0.331952	0.458854
O6	O	0.247148	0.678321	0.004817
O7	O	0.013238	0.168942	0.507681
O8	O	0.294988	0.869860	0.984877
N1	N	0.315290	0.860437	0.722211
N2	N	0.046542	0.140027	0.246148
N3	N	0.215034	0.646398	0.744772
N4	N	0.441208	0.345274	0.196784
C1	C	0.347533	0.912699	0.494782
C2	C	0.030132	0.026001	0.048183
H1	H	0.338192	0.893567	0.392624
H2	H	0.558808	0.048227	0.890580
C3	C	0.401068	0.009244	0.532219
C4	C	0.133097	0.979311	0.070181
C5	C	0.416149	0.023342	0.666732
C6	C	0.185097	0.008981	0.187188
H3	H	0.014897	0.001838	0.675290
H4	H	0.262556	0.974919	0.210666
C7	C	0.235080	0.520962	0.558550
C8	C	0.490965	0.493347	0.052316
H5	H	0.284660	0.491323	0.481466
H6	H	0.892878	0.387831	0.892721
C9	C	0.277064	0.603461	0.646861
C10	C	0.514401	0.393475	0.116425
H7	H	0.356671	0.634262	0.632350
H8	H	0.007800	0.280987	0.049702
C11	C	0.287610	0.852372	0.590138
C12	C	0.986027	0.102166	0.140861
C13	C	0.385279	0.942013	0.756440
C14	C	0.136101	0.079986	0.278542
H9	H	0.420502	0.943258	0.852381
C15	C	0.117657	0.596239	0.765504
C16	C	0.342656	0.394937	0.204068
C17	C	0.070338	0.524838	0.672081
C18	C	0.334311	0.505645	0.177671
H10	H	0.483184	0.445781	0.709511
H11	H	0.264099	0.548477	0.209209
C19	C	0.128864	0.481015	0.570874
C20	C	0.394642	0.548509	0.077530
C21	C	0.446252	0.094595	0.432408
C22	C	0.191211	0.901872	0.970143
C23	C	0.074344	0.393240	0.479200
C24	C	0.348055	0.643393	0.994240
Ni3	Ni	0.739908	0.742965	0.841115
Ni4	Ni	0.995747	0.256840	0.371350
O9	O	0.598876	0.335371	0.366125
O10	O	0.854687	0.655188	0.845231
O11	O	0.867807	0.186129	0.386885
O12	O	0.626847	0.828369	0.870901
O13	O	0.971483	0.361334	0.488484
O14	O	0.709863	0.644882	0.964224
O15	O	0.535680	0.150678	0.458138
O16	O	0.788015	0.832633	0.967779
N5	N	0.791529	0.847749	0.707923
N6	N	0.570349	0.152728	0.198432
N7	N	0.669099	0.647462	0.704932
N8	N	0.951877	0.359574	0.221003
C25	C	0.759964	0.002782	0.562238
C26	C	0.579559	0.050820	0.992868
H12	H	0.702346	0.053784	0.515364
H13	H	0.982998	0.003569	0.963014
C27	C	0.868285	0.033234	0.566452
C28	C	0.655792	0.979574	0.042527
C29	C	0.934839	0.974089	0.653024
C30	C	0.698909	0.004900	0.166841
H14	H	0.459665	0.092365	0.702439
H15	H	0.763114	0.956857	0.208457
C31	C	0.637260	0.567435	0.489619
C32	C	0.897761	0.409716	0.994474
H16	H	0.641190	0.581361	0.385910
H17	H	0.555149	0.533636	0.007152
C33	C	0.703287	0.629209	0.578603
C34	C	0.953935	0.339449	0.087550
H18	H	0.593295	0.359094	0.107512
C35	C	0.723905	0.906423	0.624919
C36	C	0.526624	0.124738	0.076104
H19	H	0.905243	0.130799	0.125257
C37	C	0.895479	0.883171	0.722336
C38	C	0.660800	0.096867	0.237379
H20	H	0.947826	0.844180	0.792358
H21	H	0.700408	0.118903	0.325828
C39	C	0.583016	0.587004	0.743491
C40	C	0.896617	0.450027	0.255400
H22	H	0.545679	0.606954	0.830811
C41	C	0.542219	0.498139	0.668240
C42	C	0.879670	0.535854	0.165671
H23	H	0.990870	0.494019	0.689043
H24	H	0.855399	0.613107	0.202430
C43	C	0.570398	0.485856	0.537604
C44	C	0.860696	0.512546	0.034368
C45	C	0.913073	0.134092	0.491794
C46	C	0.689427	0.878052	0.963312
C47	C	0.536775	0.384266	0.454147
C48	C	0.804538	0.597101	0.939281
P1	P	0.156223	0.807896	0.539916
H25	H	0.086679	0.790294	0.642674
H26	H	0.159541	0.725551	0.447020
P2	P	0.193198	0.088413	0.436358
H27	H	0.231729	0.187191	0.481912
H28	H	0.143535	0.028243	0.531649
P3	P	0.066534	0.588668	0.923590
H29	H	0.041026	0.685632	0.984196
H30	H	0.123690	0.513836	0.999272
P4	P	0.229365	0.323647	0.151523
H31	H	0.237625	0.237769	0.232695
H32	H	0.144528	0.393675	0.172215
P5	P	0.600397	0.851622	0.566953
H33	H	0.529506	0.801044	0.650910
H34	H	0.579555	0.864845	0.432727
P6	P	0.397795	0.166761	0.022983
H35	H	0.333451	0.080187	0.985782
H36	H	0.407958	0.237124	0.917281
P7	P	0.832923	0.670513	0.525478
H37	H	0.914658	0.674481	0.620611
H38	H	0.828088	0.761589	0.445231
P8	P	0.791383	0.428171	0.354332
H39	H	0.800567	0.425694	0.490800
H40	H	0.764694	0.329497	0.298197
