data_NiPyC2_relax_sc211_meta_functionalized_CH2-CH3_lammps_PM
_symmetry_space_group_name_H-M	'P1'
_cell_length_a	12.505600
_cell_length_b	12.523400
_cell_length_c	10.276800
_cell_angle_alpha	90.000000
_cell_angle_beta	91.268998
_cell_angle_gamma	90.000000
_symmetry_Int_Tables_number 1

loop_
_symmetry_equiv_pos_as_xyz
'x,y,z'

loop_
_atom_site_label
_atom_site_type_symbol
_atom_site_fract_x
_atom_site_fract_y
_atom_site_fract_z
Ni1	Ni	0.267363	0.754799	0.877839
Ni2	Ni	0.522517	0.224832	0.343557
O1	O	0.132118	0.366441	0.352864
O2	O	0.386301	0.678251	0.901962
O3	O	0.399232	0.150255	0.363101
O4	O	0.146040	0.833376	0.891344
O5	O	0.495371	0.316404	0.464226
O6	O	0.231959	0.656664	0.000962
O7	O	0.031951	0.196552	0.449745
O8	O	0.296145	0.852412	0.006635
N1	N	0.327701	0.855351	0.742256
N2	N	0.071945	0.185522	0.200744
N3	N	0.214675	0.654915	0.737520
N4	N	0.467575	0.332141	0.211826
C1	C	0.348742	0.921746	0.516812
C2	C	0.042251	0.043660	0.037670
H1	H	0.330540	0.911350	0.414160
C3	C	0.402560	0.014655	0.559453
C4	C	0.146606	0.995145	0.062853
C5	C	0.418984	0.024624	0.696776
C6	C	0.207408	0.045094	0.163280
H2	H	0.284467	0.012146	0.191641
C7	C	0.237274	0.547394	0.537089
C8	C	0.493005	0.503794	0.103025
C9	C	0.280103	0.611240	0.644827
C10	C	0.526590	0.423039	0.191430
H3	H	0.362967	0.635220	0.643881
H4	H	0.065759	0.342488	0.032157
C11	C	0.307757	0.845785	0.608497
C12	C	0.010959	0.141018	0.104154
H5	H	0.245857	0.793677	0.572587
H6	H	0.551896	0.981355	0.314547
C13	C	0.397517	0.934786	0.780489
C14	C	0.165859	0.134109	0.235862
H7	H	0.432841	0.932462	0.877014
H8	H	0.207485	0.158662	0.323749
C15	C	0.107694	0.633095	0.727360
C16	C	0.362087	0.334815	0.168526
H9	H	0.056988	0.661545	0.802187
H10	H	0.311853	0.267507	0.185199
C17	C	0.062858	0.571323	0.621481
C18	C	0.316712	0.428302	0.103049
H11	H	0.232645	0.429331	0.077009
C19	C	0.127955	0.513861	0.536859
C20	C	0.382005	0.516768	0.069184
C21	C	0.452618	0.095544	0.460490
C22	C	0.194783	0.891371	0.988527
C23	C	0.077514	0.425832	0.440661
C24	C	0.334251	0.619720	0.993345
Ni3	Ni	0.753404	0.764349	0.785105
Ni4	Ni	0.009981	0.290293	0.324332
O9	O	0.648643	0.298738	0.362563
O10	O	0.876149	0.687895	0.800435
O11	O	0.884619	0.213010	0.328196
O12	O	0.631068	0.841329	0.804534
O13	O	0.974805	0.388887	0.445203
O14	O	0.729028	0.672135	0.912945
O15	O	0.555229	0.128534	0.467619
O16	O	0.787888	0.860238	0.905421
N5	N	0.804315	0.866011	0.643000
N6	N	0.569817	0.123183	0.202856
N7	N	0.694056	0.658350	0.656162
N8	N	0.962932	0.392694	0.182958
C25	C	0.776409	0.017716	0.488429
C26	C	0.595159	0.938715	0.118906
H12	H	0.723711	0.057074	0.419953
C27	C	0.885341	0.050143	0.495692
C28	C	0.637003	0.976572	0.000149
C29	C	0.952937	0.985635	0.574060
C30	C	0.643772	0.089019	0.986590
H13	H	0.673461	0.122404	0.897580
C31	C	0.734720	0.507155	0.512968
C32	C	0.952895	0.464928	0.959734
H14	H	0.799140	0.457829	0.483577
C33	C	0.759137	0.610801	0.566910
C34	C	0.002905	0.396719	0.059188
H15	H	0.833175	0.649229	0.542446
H16	H	0.609014	0.425933	0.221959
C35	C	0.736095	0.929604	0.567789
C36	C	0.567636	0.013207	0.220567
H17	H	0.651190	0.912979	0.565774
H18	H	0.931824	0.172963	0.088374
C37	C	0.912713	0.888393	0.636314
C38	C	0.610934	0.160475	0.088261
H19	H	0.967595	0.837289	0.688776
H20	H	0.621400	0.244974	0.075003
C39	C	0.595667	0.610154	0.678088
C40	C	0.884406	0.465749	0.211461
H21	H	0.539717	0.650771	0.738712
H22	H	0.833785	0.450866	0.290805
C41	C	0.568701	0.505193	0.624142
C42	C	0.860734	0.555281	0.129594
H23	H	0.977956	0.567358	0.607798
H24	H	0.809980	0.618168	0.165566
C43	C	0.633719	0.459725	0.528474
C44	C	0.887342	0.553729	0.997608
C45	C	0.931396	0.156756	0.427804
C46	C	0.687001	0.898662	0.896468
C47	C	0.596242	0.353691	0.457248
C48	C	0.829074	0.633068	0.897968
C49	C	0.438839	0.133504	0.756243
C50	C	0.380818	0.149835	0.885036
H25	H	0.408645	0.196133	0.688399
H26	H	0.525828	0.146090	0.769751
H27	H	0.292948	0.142621	0.869464
H28	H	0.398511	0.229607	0.924784
H29	H	0.407634	0.092516	0.961063
C51	C	0.954121	0.985874	0.967753
C52	C	0.896827	0.060442	0.869335
H30	H	0.897325	0.962630	0.044307
H31	H	0.979660	0.912356	0.918906
H32	H	0.850757	0.122708	0.918437
H33	H	0.838492	0.020343	0.805560
H34	H	0.954258	0.098709	0.805262
C53	C	0.296631	0.549074	0.411334
C54	C	0.244226	0.627675	0.315230
H35	H	0.300155	0.467978	0.369506
H36	H	0.381138	0.573964	0.428770
H37	H	0.182466	0.586265	0.254509
H38	H	0.305691	0.661649	0.251647
H39	H	0.206190	0.695859	0.365653
C55	C	0.580390	0.550215	0.025083
C56	C	0.644553	0.459874	0.958196
H40	H	0.553340	0.610910	0.955797
H41	H	0.634266	0.592350	0.094959
H42	H	0.596442	0.388445	0.935348
H43	H	0.679534	0.485459	0.865850
H44	H	0.709226	0.430463	0.023861
C57	C	0.066130	0.024891	0.595491
C58	C	0.128997	0.977243	0.701166
H45	H	0.063298	0.108548	0.630246
H46	H	0.111149	0.017516	0.503659
H47	H	0.095874	0.998786	0.794031
H48	H	0.208268	0.015150	0.702027
H49	H	0.129390	0.891100	0.683483
C59	C	0.588353	0.819163	0.142474
C60	C	0.512448	0.784483	0.249634
H50	H	0.559142	0.780559	0.051363
H51	H	0.669736	0.788171	0.165939
H52	H	0.546430	0.804207	0.347446
H53	H	0.432870	0.822636	0.235588
H54	H	0.501786	0.696687	0.246386
C61	C	0.475012	0.435813	0.670274
C62	C	0.419685	0.451854	0.794998
H55	H	0.411798	0.436378	0.593974
H56	H	0.507131	0.353672	0.682615
H57	H	0.448650	0.525231	0.830944
H58	H	0.331401	0.450725	0.783213
H59	H	0.437629	0.388063	0.865284
C63	C	0.953139	0.428478	0.820643
C64	C	0.909341	0.316836	0.804764
H60	H	0.902286	0.479926	0.758050
H61	H	0.037114	0.426728	0.788864
H62	H	0.828367	0.310217	0.846371
H63	H	0.905203	0.294964	0.699985
H64	H	0.965996	0.262711	0.855296
