data_NiPyC2_relax_sc211_meta_functionalized_PH2_lammps_PM
_symmetry_space_group_name_H-M	'P1'
_cell_length_a	13.916067
_cell_length_b	9.470024
_cell_length_c	11.466828
_cell_angle_alpha	90.000000
_cell_angle_beta	91.268998
_cell_angle_gamma	90.000000
_symmetry_Int_Tables_number 1

loop_
_symmetry_equiv_pos_as_xyz
'x,y,z'

loop_
_atom_site_label
_atom_site_type_symbol
_atom_site_fract_x
_atom_site_fract_y
_atom_site_fract_z
Ni1	Ni	0.208351	0.900949	0.792756
Ni2	Ni	0.443963	0.409461	0.303734
O1	O	0.052548	0.523028	0.299450
O2	O	0.307622	0.789004	0.815869
O3	O	0.347774	0.290827	0.315212
O4	O	0.109273	1.018054	0.794596
O5	O	0.410382	0.514627	0.419805
O6	O	0.169026	0.796449	0.909053
O7	O	-0.015674	0.290091	0.379732
O8	O	0.246664	1.032002	0.895079
N1	N	0.265782	1.004786	0.667510
N2	N	0.006374	0.303189	0.154697
N3	N	0.151027	0.768222	0.684387
N4	N	0.379006	0.535662	0.201171
C1	C	0.285285	1.045215	0.461386
C2	C	0.022558	0.250164	-0.050597
H1	H	0.440604	0.214930	0.898717
C3	C	0.365354	1.130261	0.484200
C4	C	0.109561	0.176976	-0.028727
C5	C	0.399842	1.140757	0.599391
C6	C	0.146480	0.177552	0.085806
H2	H	0.215744	1.130546	0.105316
C7	C	0.156559	0.636669	0.504413
C8	C	0.398937	0.664600	0.028977
H3	H	0.198615	0.600093	0.432072
C9	C	0.203479	0.698393	0.602303
C10	C	0.427031	0.637180	0.142233
H4	H	0.280165	0.713877	0.600180
H5	H	0.027882	0.627910	0.106483
C11	C	0.231721	0.995437	0.554443
C12	C	-0.033049	0.296618	0.044323
H6	H	0.168108	0.937679	0.534077
H7	H	0.361671	0.297461	0.077664
C13	C	0.352437	1.069163	0.688601
C14	C	0.095275	0.243817	0.175683
H8	H	0.387495	1.057822	0.772530
H9	H	0.128342	0.251120	0.261642
C15	C	0.054117	0.745280	0.688516
C16	C	0.282552	0.520421	0.178780
H10	H	0.014675	0.784053	0.761817
H11	H	0.238486	0.460004	0.236614
C17	C	0.005478	0.668114	0.600339
C18	C	0.241492	0.578757	0.077211
H12	H	0.168087	0.554839	0.052662
C19	C	0.055501	0.628218	0.499432
C20	C	0.299667	0.655982	0.002208
C21	C	0.405510	0.219766	0.390809
C22	C	0.159309	1.092384	0.876586
C23	C	0.003751	0.580617	0.388455
C24	C	0.255509	0.732950	0.901970
Ni3	Ni	0.682961	0.951126	0.786083
Ni4	Ni	0.931962	0.415769	0.276223
O9	O	0.543209	0.523283	0.315863
O10	O	0.787455	0.846123	0.804391
O11	O	0.829084	0.305468	0.279916
O12	O	0.578951	1.055826	0.794203
O13	O	0.895462	0.526691	0.389863
O14	O	0.650081	0.835890	0.899301
O15	O	0.491941	0.283145	0.402282
O16	O	0.718068	1.076227	0.890229
N5	N	0.732616	1.067664	0.666434
N6	N	0.492802	0.306937	0.176567
N7	N	0.631807	0.823754	0.672796
N8	N	0.878064	0.544543	0.164974
C25	C	0.724319	0.161574	0.470606
C26	C	0.480663	0.218597	-0.019885
H13	H	0.681918	0.184022	0.393932
C27	C	0.825060	0.173794	0.469330
C28	C	0.577020	0.175228	-0.013653
C29	C	0.876779	1.133545	0.570271
C30	C	0.625447	0.183404	0.095090
H14	H	0.464214	0.200167	0.619800
C31	C	0.635499	0.719560	0.481808
C32	C	0.888919	0.725306	0.017557
H15	H	0.671383	0.707428	0.399521
C33	C	0.680645	0.793781	0.573310
C34	C	0.932986	0.625958	0.093714
H16	H	0.752368	0.834212	0.561941
H17	H	0.497296	0.671817	0.171086
C35	C	0.678905	1.108191	0.570520
C36	C	0.437586	0.274668	0.079863
H18	H	0.602896	1.086101	0.566438
H19	H	0.876994	0.336819	0.027612
C37	C	0.828477	1.094189	0.670382
C38	C	0.587661	0.271112	0.180096
H20	H	0.869422	1.068477	0.748296
H21	H	0.633081	0.307971	0.250573
C39	C	0.542324	0.767613	0.687779
C40	C	0.780432	0.562917	0.163965
H22	H	0.498910	0.804660	0.758126
H23	H	0.738118	0.517734	0.232355
C41	C	0.505095	0.667368	0.608703
C42	C	0.734797	0.645267	0.078301
H24	H	0.659372	0.668579	0.085415
C43	C	0.545354	0.658471	0.498996
C44	C	0.789336	0.713186	-0.005297
C45	C	0.876668	0.235793	0.366075
C46	C	0.627351	1.125214	0.880372
C47	C	0.495520	0.580051	0.404563
C48	C	0.739720	0.783107	0.891886
P1	P	0.264300	0.971246	0.318785
H25	H	0.311837	0.840399	0.311648
H26	H	0.165085	0.950449	0.298958
P2	P	0.000023	0.327597	0.810214
H27	H	0.881865	0.346577	0.797392
H28	H	0.047724	0.458447	0.806095
P3	P	0.871065	0.596116	0.631205
H29	H	0.856490	0.599926	0.752001
H30	H	0.865828	0.453220	0.598248
P4	P	0.480125	0.601638	0.926115
H31	H	0.563223	0.543173	-0.022730
H32	H	0.434985	0.474810	0.894765
P5	P	0.019671	1.101317	0.565469
H33	H	0.072748	0.227480	0.575556
H34	H	0.036123	1.036127	0.457285
P6	P	0.709498	1.048645	0.140271
H35	H	0.804631	1.097590	0.137447
H36	H	0.685797	0.990579	0.248874
P7	P	0.436157	0.520104	0.660178
H37	H	0.353536	0.551300	0.723082
H38	H	0.497893	0.418349	0.710724
P8	P	-0.038695	0.895663	0.009353
H39	H	-0.040382	0.949279	0.896073
H40	H	0.053027	0.895999	0.063446
