data_NiPyC2_relax_sc211_ortho_functionalized_PH2_lammps_PM
_symmetry_space_group_name_H-M	'P1'
_cell_length_a	15.324982
_cell_length_b	9.811507
_cell_length_c	10.837448
_cell_angle_alpha	90.000000
_cell_angle_beta	91.268998
_cell_angle_gamma	90.000000
_symmetry_Int_Tables_number 1

loop_
_symmetry_equiv_pos_as_xyz
'x,y,z'

loop_
_atom_site_label
_atom_site_type_symbol
_atom_site_fract_x
_atom_site_fract_y
_atom_site_fract_z
Ni1	Ni	0.158437	0.881103	0.817915
Ni2	Ni	0.403797	0.385762	0.324301
O1	O	-0.000017	0.485905	0.328450
O2	O	0.252739	0.779089	0.828577
O3	O	0.307394	0.290167	0.329398
O4	O	0.066961	0.984643	0.827934
O5	O	0.376571	0.496687	0.445315
O6	O	0.132954	0.767926	0.939188
O7	O	-0.052946	0.258481	0.439184
O8	O	0.191504	1.002956	0.931915
N1	N	0.203990	0.996132	0.689925
N2	N	-0.032315	0.257368	0.199002
N3	N	0.104422	0.756627	0.702604
N4	N	0.361070	0.518923	0.205483
C1	C	0.226330	1.055271	0.476668
C2	C	-0.029406	0.153037	-0.001448
H1	H	0.207584	1.042490	0.380627
H2	H	0.436089	0.180831	0.895032
C3	C	0.300756	1.131661	0.508816
C4	C	0.058657	1.116505	0.017242
C5	C	0.327313	1.134708	0.632140
C6	C	0.094979	1.131977	0.134096
H3	H	0.890854	0.176780	0.667153
H4	H	0.157878	1.087223	0.156846
C7	C	0.100889	0.641608	0.506934
C8	C	0.349895	0.594895	-0.005004
H5	H	0.133028	0.617356	0.422020
H6	H	0.836062	0.541190	0.888879
C9	C	0.147696	0.707808	0.603044
C10	C	0.399702	0.539301	0.094296
H7	H	0.216229	0.728945	0.593691
H8	H	-0.043987	0.469106	0.058686
C11	C	0.171452	1.006123	0.570180
C12	C	-0.076312	0.210434	0.096201
C13	C	0.282887	1.056902	0.718559
C14	C	0.053562	0.215282	0.219572
H9	H	0.313539	1.040625	0.807928
C15	C	0.020344	0.708763	0.723769
C16	C	0.288219	0.596355	0.229162
C17	C	-0.022941	0.626789	0.636819
C18	C	0.228651	0.616159	0.131708
H10	H	0.413216	0.597947	0.667227
H11	H	0.163162	0.650758	0.151000
C19	C	0.012266	0.608285	0.522138
C20	C	0.262051	0.632905	0.013858
C21	C	0.348757	0.212888	0.414935
C22	C	0.109094	1.053375	0.915952
C23	C	-0.040594	0.547217	0.419324
C24	C	0.212575	0.713161	0.919271
Ni3	Ni	0.649742	0.895694	0.824602
Ni4	Ni	0.897360	0.372557	0.318397
O9	O	0.500262	0.478236	0.342414
O10	O	0.745446	0.799450	0.838878
O11	O	0.809994	0.260103	0.326836
O12	O	0.553917	0.991441	0.833533
O13	O	0.864322	0.488087	0.435486
O14	O	0.622293	0.776778	0.941190
O15	O	0.430402	0.259944	0.436009
O16	O	0.677777	1.015252	0.941707
N5	N	0.695634	1.018774	0.702357
N6	N	0.448949	0.268656	0.197621
N7	N	0.603163	0.772320	0.702752
N8	N	0.842131	0.485632	0.194310
C25	C	0.714773	1.085898	0.490724
C26	C	0.463203	0.191059	-0.012273
H12	H	0.688915	1.092717	0.397107
H13	H	-0.060380	0.140396	0.909172
C27	C	0.800273	1.131457	0.518169
C28	C	0.546701	0.139613	0.015734
C29	C	0.828220	1.133159	0.641029
C30	C	0.577584	0.145753	0.136740
H14	H	0.384572	0.192048	0.661052
H15	H	0.640364	1.102165	0.162375
C31	C	0.583520	0.695476	0.493837
C32	C	0.821981	0.560031	-0.015236
H16	H	0.602730	0.704104	0.398813
H17	H	0.378774	0.607207	0.905590
C33	C	0.638043	0.746745	0.588860
C34	C	0.875031	0.502511	0.078918
H18	H	0.466682	0.508816	0.080986
C35	C	0.660375	1.040370	0.585930
C36	C	0.411710	0.245680	0.082047
H19	H	0.838723	0.228881	0.084610
C37	C	0.774961	1.077408	0.731897
C38	C	0.527544	0.208261	0.226473
H20	H	0.800267	1.071150	0.824843
H21	H	0.554520	0.216158	0.318783
C39	C	0.523198	0.717123	0.729767
C40	C	0.763750	0.548893	0.221063
H22	H	0.493812	0.739125	0.817117
C41	C	0.474946	0.642934	0.642338
C42	C	0.727927	0.645506	0.139860
H23	H	0.899097	0.581497	0.658082
H24	H	0.672663	0.706414	0.167708
C43	C	0.504816	0.631972	0.522907
C44	C	0.751344	0.642603	0.017243
C45	C	0.851916	0.198759	0.419527
C46	C	0.595571	1.062976	0.921780
C47	C	0.458747	0.544196	0.431632
C48	C	0.703796	0.727532	0.924393
P1	P	0.056057	0.999395	0.535865
H25	H	-0.002439	0.962382	0.627228
H26	H	0.039568	0.926264	0.426060
P2	P	0.121696	0.289398	0.337851
H27	H	0.100051	0.287976	0.463100
H28	H	0.156308	0.414311	0.299273
P3	P	-0.042388	0.766636	0.851244
H29	H	-0.081844	0.894148	0.833653
H30	H	-0.017714	0.729369	0.972294
P4	P	0.299264	0.742033	0.329613
H31	H	0.219341	0.812407	0.326274
H32	H	0.323620	0.724726	0.453928
P5	P	0.544420	1.043153	0.558128
H33	H	0.490072	0.962572	0.630269
H34	H	0.526904	1.002849	0.435433
P6	P	0.295825	0.249919	0.055776
H35	H	0.246543	0.341987	0.123296
H36	H	0.277429	0.274611	0.929912
P7	P	0.753802	0.740275	0.567472
H37	H	0.807183	0.833487	0.631090
H38	H	0.771420	0.754736	0.441228
P8	P	0.689496	0.471458	0.323799
H39	H	0.710438	0.458917	0.450191
H40	H	0.667166	0.347807	0.269167
