data_NiPyC2_relax_sc211_meta_functionalized_O-CH2-CH2-CH3_lammps_PM
_symmetry_space_group_name_H-M	'P1'
_cell_length_a	14.346211
_cell_length_b	11.193857
_cell_length_c	10.615611
_cell_angle_alpha	90.000000
_cell_angle_beta	91.268998
_cell_angle_gamma	90.000000
_symmetry_Int_Tables_number 1

loop_
_symmetry_equiv_pos_as_xyz
'x,y,z'

loop_
_atom_site_label
_atom_site_type_symbol
_atom_site_fract_x
_atom_site_fract_y
_atom_site_fract_z
Ni1	Ni	0.179299	0.815362	0.855624
Ni2	Ni	0.444135	0.294183	0.351107
O1	O	0.029721	0.412491	0.362253
O2	O	0.284344	0.730461	0.877145
O3	O	0.337943	0.206696	0.350262
O4	O	0.075538	0.904657	0.863767
O5	O	0.412809	0.396849	0.473710
O6	O	0.157302	0.722590	-0.011294
O7	O	-0.027693	0.209920	0.459877
O8	O	0.210681	0.929036	0.960143
N1	N	0.228950	0.908766	0.713919
N2	N	-0.014198	0.215225	0.211280
N3	N	0.121024	0.696729	0.742082
N4	N	0.395719	0.411686	0.220938
C1	C	0.219356	1.035613	0.524945
C2	C	-0.021418	1.056669	0.053682
C3	C	0.319948	1.040553	0.517426
C4	C	0.076346	1.052917	0.044664
C5	C	0.368152	0.960688	0.596303
C6	C	0.129064	0.125924	0.128435
C7	C	0.131322	0.550919	0.576119
C8	C	0.394437	0.604936	0.107108
C9	C	0.169704	0.609470	0.684868
C10	C	0.441192	0.516029	0.186650
H1	H	0.242214	0.611808	0.694641
H2	H	0.794169	0.280630	0.112810
C11	C	0.176815	0.977599	0.632416
C12	C	0.919029	0.130717	0.144130
H3	H	0.102347	0.972212	0.635460
H4	H	0.527539	0.329384	0.097196
C13	C	0.324562	0.911035	0.702641
C14	C	0.081893	0.210364	0.205794
H5	H	0.368769	0.878266	0.778298
H6	H	0.122722	0.258952	0.274635
C15	C	0.025154	0.696227	0.724796
C16	C	0.301230	0.403578	0.188890
H7	H	-0.017693	0.752399	0.781658
H8	H	0.259703	0.336962	0.231814
C17	C	-0.019902	0.615256	0.639821
C18	C	0.250861	0.495929	0.124623
C19	C	0.033012	0.543243	0.560411
C20	C	0.298538	0.591200	0.069433
C21	C	0.375442	0.139342	0.441648
C22	C	0.123193	0.971881	0.947422
C23	C	-0.014762	0.462724	0.459970
C24	C	0.246375	0.681130	0.978205
Ni3	Ni	0.690751	0.814916	0.840012
Ni4	Ni	0.915100	0.314643	0.346289
O9	O	0.548786	0.377922	0.379162
O10	O	0.782996	0.708850	0.852926
O11	O	0.818191	0.218141	0.359178
O12	O	0.599125	0.918012	0.857248
O13	O	0.883364	0.411457	0.473113
O14	O	0.647869	0.713704	0.952039
O15	O	0.464228	0.181154	0.469491
O16	O	0.732876	0.907176	0.966776
N5	N	0.747855	0.918155	0.718356
N6	N	0.502245	0.188594	0.224028
N7	N	0.632187	0.722571	0.703226
N8	N	0.852830	0.421118	0.221966
C25	C	0.736859	1.033058	0.525055
C26	C	0.578525	0.162742	0.021763
H9	H	0.695936	0.059446	0.442879
H10	H	0.920162	0.992160	0.003162
C27	C	0.828132	0.075738	0.542593
C28	C	0.611814	1.048861	0.054554
C29	C	0.876258	1.044359	0.655394
C30	C	0.595615	1.009179	0.177260
H11	H	0.441538	0.943911	0.582316
H12	H	0.620025	0.921791	0.206825
C31	C	0.631674	0.599320	0.512172
C32	C	0.771611	0.446347	0.019102
H13	H	0.662824	0.577142	0.423314
H14	H	0.433030	0.681688	0.075347
C33	C	0.677490	0.683411	0.597111
C34	C	0.812549	0.372810	0.114412
H15	H	0.746319	0.716279	0.576540
H16	H	0.513280	0.529875	0.214381
C35	C	0.696064	0.960661	0.617575
C36	C	0.535589	0.236565	0.114849
H17	H	0.623206	0.937085	0.607387
H18	H	0.847879	0.111317	0.167778
C37	C	0.837402	0.957963	0.736880
C38	C	0.539209	0.077770	0.259683
H19	H	0.877866	0.925588	0.816058
H20	H	0.521730	1.036801	0.347407
C39	C	0.545218	0.679834	0.718747
C40	C	0.824487	0.535196	0.253809
H21	H	0.499723	0.724504	0.783381
H22	H	0.836752	0.570528	0.346755
C41	C	0.525813	0.561596	0.677726
C42	C	0.781867	0.611368	0.163022
H23	H	0.888398	0.612196	0.633989
H24	H	0.765704	0.702835	0.187817
C43	C	0.548890	0.539597	0.550914
C44	C	0.764770	0.570330	0.040187
C45	C	0.869998	0.159894	0.446953
C46	C	0.650860	0.965315	0.953858
C47	C	0.503359	0.436802	0.469556
C48	C	0.728195	0.654283	0.939361
O17	O	0.164319	1.053060	0.417493
C49	C	0.135350	0.939292	0.369064
C50	C	0.030613	0.933825	0.338293
H25	H	0.174301	0.917253	0.283904
H26	H	0.149669	0.865937	0.433277
C51	C	-0.024244	0.849938	0.422968
H27	H	0.001448	1.022927	0.346081
H28	H	0.019751	0.903388	0.240088
H29	H	-0.013359	0.873437	0.523326
H30	H	0.883833	0.856241	0.398782
H31	H	-0.002162	0.756368	0.409165
O18	O	0.217615	0.089906	0.166424
C52	C	0.287070	0.117774	0.078808
C53	C	0.359112	1.014976	0.071915
H32	H	0.325536	0.197046	0.110312
H33	H	0.259777	0.139694	0.982690
C54	C	0.353387	0.920880	0.172732
H34	H	0.427491	1.050898	0.080628
H35	H	0.361786	0.972399	0.978375
H36	H	0.350396	0.964082	0.265899
H37	H	0.417074	0.865478	0.169034
H38	H	0.291740	0.863829	0.156167
O19	O	0.187349	0.538137	0.473457
C55	C	0.207677	0.655150	0.430111
C56	C	0.294803	0.657242	0.353305
H39	H	0.147652	0.683734	0.369911
H40	H	0.221033	0.721344	0.506299
C57	C	0.375998	0.734746	0.398243
H41	H	0.320905	0.566227	0.349768
H42	H	0.272235	0.695705	0.263078
H43	H	0.412383	0.699942	0.481836
H44	H	0.430317	0.736794	0.326089
H45	H	0.350407	0.825260	0.413218
O20	O	0.158933	0.511531	0.154330
C58	C	0.099527	0.484551	0.050931
C59	C	0.017684	0.572390	0.045780
H46	H	0.071239	0.394175	0.064123
H47	H	0.133572	0.485305	0.957514
C60	C	0.014084	0.661354	0.156391
H48	H	-0.045068	0.519277	0.041003
H49	H	0.015154	0.621502	0.956053
H50	H	0.005846	0.613322	0.245922
H51	H	-0.043384	0.725998	0.140208
H52	H	0.078187	0.714298	0.170575
O21	O	-0.023678	0.098818	0.687798
C61	C	-0.042736	0.211667	0.740690
C62	C	0.041640	0.293666	0.733893
H53	H	0.919083	0.202133	0.839910
H54	H	0.886395	0.259281	0.685270
C63	C	0.119515	0.255680	0.822197
H55	H	0.020128	0.385299	0.760906
H56	H	0.068355	0.296018	0.636877
H57	H	0.094457	0.253783	0.919209
H58	H	0.175187	0.322863	0.817410
H59	H	0.146553	0.167178	0.795019
O22	O	0.565882	0.189684	0.896209
C64	C	0.478455	0.141075	0.859881
C65	C	0.449034	0.184104	0.731220
H60	H	0.424705	0.169770	0.925844
H61	H	0.476741	1.042965	0.859264
C66	C	0.342345	0.205627	0.726710
H62	H	0.475414	0.115988	0.668516
H63	H	0.486050	0.266422	0.703050
H64	H	0.302951	0.124824	0.744809
H65	H	0.318471	0.251665	0.639782
H66	H	0.318383	0.257692	0.806616
O23	O	0.547998	0.470937	0.762098
C67	C	0.515787	0.492307	0.885552
C68	C	0.424749	0.430678	0.898831
H67	H	0.510180	0.585274	0.917040
H68	H	0.565429	0.453978	0.953867
C69	C	0.350284	0.478671	0.813410
H69	H	0.400502	0.411735	-0.008832
H70	H	0.440250	0.345564	0.873526
H71	H	0.280744	0.463433	0.852700
H72	H	0.353975	0.436434	0.720364
H73	H	0.364021	0.573158	0.802638
O24	O	0.716468	0.392907	0.927259
C70	C	0.755796	0.404030	0.807806
C71	C	0.714086	0.308078	0.726207
H74	H	0.832919	0.396818	0.811275
H75	H	0.737041	0.491621	0.765831
C72	C	0.704950	0.323944	0.592130
H76	H	0.707604	0.320238	0.624975
H77	H	0.777470	0.150929	0.926221
H78	H	0.369557	0.708349	0.665917
H79	H	0.342248	0.550185	0.566142
H80	H	0.193572	0.299728	0.485563
