data_NiPyC2_relax_sc211_ortho_functionalized_O-CH2-CH2-CH3_lammps_PM
_symmetry_space_group_name_H-M	'P1'
_cell_length_a	16.158674
_cell_length_b	11.728516
_cell_length_c	9.336397
_cell_angle_alpha	90.000000
_cell_angle_beta	91.268998
_cell_angle_gamma	90.000000
_symmetry_Int_Tables_number 1

loop_
_symmetry_equiv_pos_as_xyz
'x,y,z'

loop_
_atom_site_label
_atom_site_type_symbol
_atom_site_fract_x
_atom_site_fract_y
_atom_site_fract_z
Ni1	Ni	0.156338	0.790858	0.937427
Ni2	Ni	0.384987	0.281846	0.436750
O1	O	-0.009664	0.356893	0.456559
O2	O	0.242617	0.696800	0.941464
O3	O	0.294398	0.198319	0.444896
O4	O	0.069352	0.883863	0.946488
O5	O	0.357851	0.384059	0.572319
O6	O	0.135448	0.693904	0.077603
O7	O	-0.081667	0.169223	0.582555
O8	O	0.182957	0.896601	0.077180
N1	N	0.208034	0.886105	0.802035
N2	N	-0.055034	0.170743	0.297274
N3	N	0.099619	0.688844	0.799176
N4	N	0.338558	0.385694	0.294263
C1	C	0.208132	1.015261	0.601520
C2	C	-0.001788	0.107036	0.063371
H1	H	0.172795	0.063296	0.523068
H2	H	0.437731	0.075635	0.954866
C3	C	0.292795	0.040387	0.626087
C4	C	0.060603	0.037660	0.130886
C5	C	0.335376	0.978956	0.732863
C6	C	0.061858	0.036282	0.278498
H3	H	0.871844	0.992982	0.792908
H4	H	0.101909	0.977234	0.335630
C7	C	0.093507	0.542792	0.610042
C8	C	0.341847	0.545722	0.127938
H5	H	0.124003	0.499409	0.524267
H6	H	0.796624	0.468997	0.963329
C9	C	0.137348	0.631244	0.689560
C10	C	0.383001	0.455290	0.204173
H7	H	0.200214	0.652389	0.662133
C11	C	0.167889	0.932548	0.685858
C12	C	-0.066386	0.162109	0.147771
H8	H	0.103677	0.911667	0.663509
C13	C	0.289891	0.921114	0.837858
C14	C	0.013672	0.114336	0.355953
H9	H	0.035241	0.134682	0.462767
C15	C	0.019807	0.654788	0.835972
C16	C	0.257696	0.415287	0.321330
H10	H	0.224772	0.371217	0.403909
C17	C	-0.018503	0.558265	0.769451
C18	C	0.220084	0.512084	0.260249
H11	H	0.385198	0.641122	0.621393
H12	H	0.159348	0.538312	0.293751
C19	C	0.012632	0.507832	0.649356
C20	C	0.257445	0.568148	0.149770
C21	C	0.333449	0.137989	0.547511
C22	C	0.107164	0.945081	1.045700
C23	C	-0.040076	0.417165	0.562955
C24	C	0.207528	0.641905	1.047251
Ni3	Ni	0.614701	0.775907	0.931654
Ni4	Ni	-0.104304	0.278380	0.444983
O9	O	0.475126	0.362967	0.453943
O10	O	0.706399	0.692770	0.956036
O11	O	0.789532	0.198613	0.457935
O12	O	0.521072	0.860655	0.933601
O13	O	0.866926	0.381419	0.588918
O14	O	0.583901	0.654988	1.045973
O15	O	0.410732	0.180176	0.575627
O16	O	0.624620	0.859776	0.086740
N5	N	0.672939	0.895476	0.820768
N6	N	0.432382	0.178033	0.296428
N7	N	0.578831	0.690906	0.761145
N8	N	0.827444	0.390855	0.311961
C25	C	0.687952	1.025756	0.617053
C26	C	0.453517	0.084483	0.066615
H13	H	0.659305	0.067504	0.525667
H14	H	-0.006704	0.105285	0.948342
C27	C	0.772824	0.047486	0.650988
C28	C	0.517053	1.014084	0.127361
C29	C	0.805806	0.990338	0.771223
C30	C	0.538676	1.032296	0.269989
H15	H	0.401066	0.992206	0.749306
H16	H	0.587679	0.982443	0.320231
C31	C	0.565468	0.498884	0.668512
C32	C	0.783392	0.461362	0.075776
H17	H	0.595511	0.421450	0.634804
H18	H	0.375600	0.596759	0.052466
C33	C	0.614348	0.589663	0.722559
C34	C	0.845819	0.409776	0.173700
C35	C	0.639168	0.949532	0.702278
C36	C	0.404249	0.157923	0.157233
H19	H	0.575303	0.934637	0.671796
C37	C	0.754505	0.923493	0.862287
C38	C	0.500969	0.119160	0.347807
H20	H	0.529605	0.143720	0.448601
C39	C	0.499669	0.712131	0.708355
C40	C	0.755848	0.441471	0.363669
H21	H	0.474793	0.797343	0.709608
H22	H	0.736493	0.421747	0.470808
C41	C	0.448161	0.622737	0.656456
C42	C	0.703432	0.515287	0.278234
H23	H	-0.077047	0.527954	0.806153
H24	H	0.650033	0.554586	0.325842
C43	C	0.480608	0.513186	0.640310
C44	C	0.714721	0.525916	0.131241
C45	C	0.824969	0.132911	0.558155
C46	C	0.552443	0.909288	0.051601
C47	C	0.435943	0.424610	0.551158
C48	C	0.666439	0.619980	1.038204
O17	O	0.313357	0.944740	0.983209
C49	C	0.348481	0.852468	0.066287
C50	C	0.372796	0.879651	0.225633
H25	H	0.302301	0.796115	0.093139
H26	H	0.394571	0.802374	1.008529
C51	C	0.325196	0.815376	0.342145
H27	H	0.437846	0.853978	0.245083
H28	H	0.362980	0.969586	0.249950
H29	H	0.338018	0.722666	0.336678
H30	H	0.346059	0.845717	0.449632
H31	H	0.257592	0.830590	0.330385
O18	O	0.840447	0.175315	0.089556
C52	C	0.830782	0.213122	0.945197
C53	C	0.738065	0.216385	0.911392
H32	H	0.864872	0.163191	0.869031
H33	H	0.852488	0.298573	0.925078
C54	C	0.711168	0.287471	0.782225
H34	H	0.712389	0.257593	1.002852
H35	H	0.709219	0.131475	0.907969
H36	H	0.704085	0.377603	0.812865
H37	H	0.756691	0.285631	0.698520
H38	H	0.651215	0.255229	0.738368
O19	O	-0.029921	0.725523	0.919922
C55	C	-0.019960	0.707238	0.070174
C56	C	-0.096956	0.678529	0.144159
H39	H	0.016792	0.632801	0.096675
H40	H	0.004944	0.783388	0.125386
C57	C	-0.077089	0.630275	0.294934
H41	H	0.850979	0.749050	0.152754
H42	H	0.855316	0.628310	0.069963
H43	H	-0.044760	0.547712	0.291118
H44	H	-0.031099	0.683840	0.352220
H45	H	0.853377	0.624949	0.358062
O20	O	0.466885	0.439582	0.188560
C58	C	0.483188	0.411813	1.044179
C59	C	0.563617	0.345294	1.029361
H46	H	0.434160	0.361020	0.991210
H47	H	0.487865	0.491284	0.980212
C60	C	0.598784	0.290373	0.167006
H48	H	0.553711	0.277530	0.947346
H49	H	0.609899	0.403170	0.984396
H50	H	0.661322	0.319498	0.192888
H51	H	0.563953	0.306813	0.263764
H52	H	0.607580	0.198838	0.148541
O21	O	0.792357	0.871713	0.981036
C61	C	0.770043	0.922316	0.113985
C62	C	0.841773	0.959431	0.206704
H53	H	0.743763	0.855019	0.181444
H54	H	0.727033	0.996656	0.100577
C63	C	0.867286	0.894410	0.339508
H55	H	0.818817	0.038823	0.254896
H56	H	-0.092498	0.956148	0.136203
H57	H	0.822650	0.825694	0.361468
H58	H	0.872853	0.952303	0.432082
H59	H	-0.056297	0.861942	0.328595
O22	O	0.319982	0.169627	0.125265
C64	C	0.304453	0.234021	0.998968
C65	C	0.219987	0.203053	0.933201
H60	H	0.351104	0.219970	0.914874
H61	H	0.301324	0.325404	1.025756
C66	C	0.199190	0.276247	0.801670
H62	H	0.171423	0.213391	1.013215
H63	H	0.219124	0.112854	0.901536
H64	H	0.177235	0.361738	0.834312
H65	H	0.150630	0.234162	0.735044
H66	H	0.254018	0.287059	0.734203
O23	O	0.697985	0.579732	0.720162
C67	C	0.729672	0.662039	0.626449
C68	C	0.819653	0.668594	0.665018
H67	H	0.701863	0.747433	0.637293
H68	H	0.721039	0.635976	0.513816
C69	C	0.864270	0.776079	0.626090
H69	H	0.847280	0.596522	0.608008
H70	H	0.824657	0.661694	0.783333
H71	H	0.818795	0.837784	0.586346
H72	H	-0.073531	0.758047	0.550222
H73	H	-0.090656	0.813794	0.719177
O24	O	-0.068879	0.363708	0.127846
C70	C	-0.018505	0.419311	1.034522
C71	C	0.068133	0.416279	0.089877
H74	H	-0.017253	0.372728	0.932227
H75	H	-0.042196	0.501065	1.015438
C72	C	0.092540	0.333375	0.196505
H76	H	0.115272	0.455666	1.026570
H77	H	0.309229	0.494703	0.818288
H78	H	0.113883	0.758211	0.392682
H79	H	0.232254	0.044109	0.279545
H80	H	0.014832	0.240587	0.769251
