data_NiPyC2_relax_sc211_meta_functionalized_SH_lammps_PM
_symmetry_space_group_name_H-M	'P1'
_cell_length_a	13.634448
_cell_length_b	10.244910
_cell_length_c	10.924998
_cell_angle_alpha	90.000000
_cell_angle_beta	91.268998
_cell_angle_gamma	90.000000
_symmetry_Int_Tables_number 1

loop_
_symmetry_equiv_pos_as_xyz
'x,y,z'

loop_
_atom_site_label
_atom_site_type_symbol
_atom_site_fract_x
_atom_site_fract_y
_atom_site_fract_z
Ni1	Ni	0.209551	0.869774	0.806115
Ni2	Ni	0.458285	0.365575	0.308026
O1	O	0.068562	0.457658	0.322140
O2	O	0.311211	0.764339	0.817299
O3	O	0.355488	0.263264	0.319510
O4	O	0.108586	0.974947	0.822302
O5	O	0.421205	0.475416	0.420423
O6	O	0.170197	0.755628	0.913989
O7	O	0.006355	0.253290	0.440612
O8	O	0.249970	0.971781	0.926909
N1	N	0.265664	0.983230	0.690173
N2	N	0.023186	0.234809	0.204196
N3	N	0.152374	0.768152	0.676398
N4	N	0.401869	0.474704	0.185787
C1	C	0.259599	1.094046	0.496073
C2	C	0.013827	1.067779	0.049490
H1	H	0.218739	0.117795	0.413221
H2	H	0.461425	0.114740	0.917021
C3	C	0.357776	0.132642	0.511114
C4	C	0.113195	1.088765	0.023264
C5	C	0.407567	1.099444	0.621477
C6	C	0.169111	0.163309	0.104974
H3	H	0.247802	0.164906	0.099397
C7	C	0.166341	0.604864	0.520045
C8	C	0.409527	0.595580	-0.001874
H4	H	0.210853	0.533208	0.474438
C9	C	0.209717	0.690595	0.605277
C10	C	0.454948	0.520407	0.090306
H5	H	0.288410	0.700218	0.609486
H6	H	0.032514	0.440518	0.070695
C11	C	0.213525	1.024353	0.588891
C12	C	-0.032339	0.158343	0.126537
H7	H	0.136379	1.002722	0.579154
H8	H	0.388713	0.260639	0.067554
C13	C	0.362504	1.014699	0.703732
C14	C	0.123346	0.229164	0.199632
H9	H	0.404525	0.974712	0.779550
H10	H	0.167847	0.278436	0.267877
C15	C	0.054548	0.781915	0.645751
C16	C	0.306445	0.512335	0.198463
H11	H	0.008677	0.846094	0.697173
H12	H	0.266941	0.481219	0.277807
C17	C	0.015623	0.722496	0.539765
C18	C	0.261498	0.598547	0.115347
C19	C	0.066460	0.617845	0.490290
C20	C	0.310444	0.631386	0.007176
C21	C	0.407299	0.202897	0.409614
C22	C	0.160770	1.027818	0.916051
C23	C	0.017695	0.527370	0.402751
C24	C	0.259775	0.701120	0.903052
Ni3	Ni	0.701548	0.856736	0.819150
Ni4	Ni	-0.033028	0.353311	0.316808
O9	O	0.561452	0.467320	0.321110
O10	O	0.805545	0.756906	0.830577
O11	O	0.847349	0.252135	0.334521
O12	O	0.597379	0.955430	0.830863
O13	O	0.911177	0.473123	0.422819
O14	O	0.664008	0.740794	0.927624
O15	O	0.497107	0.256915	0.423463
O16	O	0.737174	0.962139	0.939068
N5	N	0.756329	0.973279	0.703572
N6	N	0.512357	0.255273	0.188717
N7	N	0.648098	0.751402	0.692870
N8	N	0.892128	0.450829	0.187141
C25	C	0.752682	1.079912	0.508401
C26	C	0.502047	0.137568	-0.000508
H13	H	0.712555	1.103416	0.425970
C27	C	0.846758	0.131149	0.530172
C28	C	0.595638	1.084958	0.021529
C29	C	0.888856	0.116874	0.647902
C30	C	0.640941	1.106549	0.135877
C31	C	0.660316	0.632927	0.504937
C32	C	0.893626	0.542925	-0.015317
H14	H	0.702479	0.608809	0.425580
H15	H	0.451827	0.627379	0.921828
C33	C	0.704315	0.702440	0.601904
C34	C	0.940713	0.475618	0.081456
H16	H	0.782184	0.717845	0.604443
H17	H	0.531285	0.493916	0.082625
C35	C	0.708314	1.001922	0.596091
C36	C	0.460209	0.219652	0.086012
H18	H	0.635691	0.963664	0.577506
H19	H	0.870984	0.162533	0.128504
C37	C	0.845384	1.030121	0.730112
C38	C	0.604081	0.205202	0.210444
H20	H	0.880537	1.013420	0.817695
H21	H	0.646237	0.237618	0.289321
C39	C	0.551641	0.716662	0.699266
C40	C	0.798026	0.493441	0.200225
H22	H	0.508191	0.753277	0.772931
H23	H	0.757934	0.466162	0.280276
C41	C	0.512903	0.620537	0.622090
C42	C	0.753524	0.574024	0.112794
H24	H	0.681976	0.615089	0.129986
C43	C	0.562185	0.593241	0.513647
C44	C	0.800941	0.600151	0.003664
C45	C	0.898128	0.198840	0.428520
C46	C	0.646829	1.014299	0.923009
C47	C	0.511148	0.528293	0.409155
C48	C	0.753815	0.688251	0.911964
S1	S	0.518434	0.175138	0.666501
H25	H	0.504752	0.259817	0.761090
S2	S	-0.032371	0.907660	0.045013
H26	H	-0.021970	0.849665	0.933566
S3	S	0.913909	0.809518	0.446537
H27	H	-0.018669	0.896708	0.375695
S4	S	0.156518	0.683877	0.161679
H28	H	0.184122	0.794144	0.224537
S5	S	-0.008368	0.231615	0.705869
H29	H	0.086196	0.200086	0.680499
S6	S	0.720468	0.988579	0.200566
H30	H	0.666845	0.893365	0.256409
S7	S	0.434187	0.503678	0.685702
H31	H	0.345079	0.489840	0.628024
S8	S	0.942275	0.533069	0.837378
H32	H	0.051502	0.586653	0.836529
