data_NiPyC2_relax_sc211_ortho_functionalized_SH_lammps_PM
_symmetry_space_group_name_H-M	'P1'
_cell_length_a	14.746555
_cell_length_b	10.510534
_cell_length_c	10.483555
_cell_angle_alpha	90.000000
_cell_angle_beta	91.268998
_cell_angle_gamma	90.000000
_symmetry_Int_Tables_number 1

loop_
_symmetry_equiv_pos_as_xyz
'x,y,z'

loop_
_atom_site_label
_atom_site_type_symbol
_atom_site_fract_x
_atom_site_fract_y
_atom_site_fract_z
Ni1	Ni	0.175485	0.858025	0.839646
Ni2	Ni	0.411410	0.343836	0.332945
O1	O	0.038949	0.432004	0.359577
O2	O	0.268299	0.757715	0.858846
O3	O	0.317707	0.244547	0.345649
O4	O	0.083339	0.961759	0.841347
O5	O	0.377045	0.458286	0.448274
O6	O	0.140674	0.758800	0.967695
O7	O	-0.025844	0.216042	0.454581
O8	O	0.212192	0.973785	0.953049
N1	N	0.228353	0.954890	0.707203
N2	N	-0.012016	0.238801	0.208661
N3	N	0.122054	0.741877	0.721183
N4	N	0.355742	0.444238	0.202181
C1	C	0.234398	1.051859	0.499870
C2	C	-0.008611	0.140768	0.001614
H1	H	0.203796	1.067653	0.406466
H2	H	0.442715	0.123792	0.908875
C3	C	0.320056	0.102374	0.530023
C4	C	0.083255	0.109300	0.020992
C5	C	0.358184	1.079327	0.649632
C6	C	0.126312	0.144547	0.133935
H3	H	0.914896	0.122330	0.686807
H4	H	0.197020	0.121270	0.151792
C7	C	0.133515	0.603222	0.539932
C8	C	0.339390	0.534719	-0.006729
H5	H	0.173069	0.567180	0.462611
H6	H	0.866690	0.531673	0.909660
C9	C	0.173165	0.687787	0.628069
C10	C	0.393686	0.475959	0.087940
H7	H	0.243734	0.713691	0.619238
H8	H	-0.014554	0.450552	0.083240
C11	C	0.185990	0.986534	0.592745
C12	C	-0.057159	0.199927	0.099144
H9	H	0.351996	0.221931	0.080953
C13	C	0.314637	0.997742	0.732782
C14	C	0.077890	0.207532	0.226752
H10	H	0.347870	0.973528	0.821963
H11	H	0.112612	0.232602	0.314916
C15	C	0.033608	0.702270	0.736751
C16	C	0.267893	0.480363	0.225060
H12	H	0.234879	0.446826	0.309353
C17	C	-0.006089	0.614830	0.653279
C18	C	0.220977	0.562929	0.143107
H13	H	0.417864	0.552393	0.677934
H14	H	0.155654	0.600557	0.169727
C19	C	0.042544	0.567718	0.552067
C20	C	0.258323	0.594450	0.027283
C21	C	0.364606	0.187318	0.439169
C22	C	0.130284	1.028349	0.928295
C23	C	-0.003358	0.485806	0.456895
C24	C	0.222025	0.702425	0.951131
Ni3	Ni	0.663024	0.848953	0.835983
Ni4	Ni	-0.060042	0.337798	0.343634
O9	O	0.505162	0.447291	0.342097
O10	O	0.758847	0.750105	0.850167
O11	O	0.827201	0.242585	0.350912
O12	O	0.568446	0.948037	0.842802
O13	O	0.898937	0.433850	0.474307
O14	O	0.632917	0.739607	0.960015
O15	O	0.446900	0.242266	0.459806
O16	O	0.695356	0.960398	0.957916
N5	N	0.716881	0.958610	0.709067
N6	N	0.464546	0.227199	0.212081
N7	N	0.607266	0.736214	0.710663
N8	N	0.868751	0.462981	0.225199
C25	C	0.739280	1.031908	0.494159
C26	C	0.470188	0.129032	0.004805
H15	H	0.718663	1.025181	0.394972
H16	H	-0.042683	0.116711	0.912900
C27	C	0.823375	1.087024	0.528239
C28	C	0.556106	1.076682	0.035154
C29	C	0.852467	1.077205	0.654923
C30	C	0.585222	1.081134	0.160846
H17	H	0.420811	0.125189	0.679370
H18	H	0.642974	1.025314	0.192609
C31	C	0.585347	0.664322	0.494369
C32	C	0.846861	0.538955	0.008095
H19	H	0.601932	0.679042	0.395496
H20	H	0.360399	0.534885	0.895316
C33	C	0.641806	0.715440	0.592817
C34	C	0.902480	0.483390	0.105813
H21	H	0.709107	0.748012	0.571523
C35	C	0.681219	0.986601	0.589997
C36	C	0.421175	0.192479	0.100365
C37	C	0.801412	1.005972	0.741522
C38	C	0.547286	0.171250	0.242116
H22	H	0.829929	0.987571	0.835122
C39	C	0.523054	0.684223	0.737333
C40	C	0.787956	0.524046	0.255168
C41	C	0.479576	0.600470	0.651064
C42	C	0.742399	0.604015	0.166381
H23	H	0.907996	0.587175	0.665065
H24	H	0.685564	0.660989	0.196429
C43	C	0.507445	0.595524	0.525786
C44	C	0.767701	0.606230	0.039829
C45	C	0.872731	0.169924	0.434912
C46	C	0.610609	1.010367	0.936217
C47	C	0.459350	0.512706	0.429234
C48	C	0.716386	0.687463	0.942065
S1	S	0.069582	0.961559	0.564729
H25	H	0.056290	0.866007	0.477453
S2	S	0.808966	0.209851	0.082966
H26	H	0.777573	0.100584	0.136213
S3	S	-0.034554	0.768211	0.854177
H27	H	-0.018819	0.718352	0.972867
S4	S	0.510942	0.461595	0.064171
H28	H	0.552624	0.564208	0.119549
S5	S	0.563664	0.990758	0.561809
H29	H	0.539918	0.921295	0.455756
S6	S	0.620472	0.241443	0.351451
H30	H	0.673507	0.305298	0.268305
S7	S	0.456302	0.749759	0.856028
H31	H	0.472491	0.711815	0.978649
S8	S	0.736356	0.500866	0.401040
H32	H	0.776242	0.582332	0.486660
