data_NiPyC2_relax_sc211_meta_functionalized_C-3CH3
_audit_creation_date              Wednesday 29 July 2020            
_audit_creation_method            Lammps Interface v.0              
_symmetry_space_group_name_H-M    P1                                
_symmetry_Int_Tables_number       1                                 
_symmetry_cell_setting            triclinic                         
loop_
_symmetry_equiv_pos_as_xyz        
'x, y, z'                         
_cell_length_a                    12.5056 
_cell_length_b                    12.5234 
_cell_length_c                    10.2768 
_cell_angle_alpha                 90.0000 
_cell_angle_beta                  91.2690 
_cell_angle_gamma                 90.0000 
loop_
_atom_site_label                  
_atom_site_type_symbol            
_atom_site_description            
_atom_site_fract_x                
_atom_site_fract_y                
_atom_site_fract_z                
_atom_type_partial_charge         
Ni1     Ni     Ni4+2    0.24700    0.75149    0.83633    0.00000 
Ni2     Ni     Ni4+2    0.49997    0.24800    0.33918    0.00000 
O3      O      O_R      0.12278    0.34769    0.38287    0.00000 
O4      O      O_R      0.37121    0.65098    0.88129    0.00000 
O5      O      O_R      0.37763    0.14751    0.37718    0.00000 
O6      O      O_R      0.12510    0.85235    0.87626    0.00000 
O7      O      O_R      0.47307    0.35616    0.48299    0.00000 
O8      O      O_R      0.22114    0.64141    0.97988    0.00000 
O9      O      O_R      0.02884    0.13516    0.48108    0.00000 
O10     O      O_R      0.27669    0.86276    0.97940    0.00000 
N11     N      N_R      0.30844    0.85125    0.70483    0.00000 
N12     N      N_R      0.06073    0.14886    0.20605    0.00000 
N13     N      N_R      0.18654    0.65031    0.70584    0.00000 
N14     N      N_R      0.43881    0.35093    0.20804    0.00000 
C15     C      C_R      0.28821    0.97005    0.52198    0.00000 
C16     C      C_R      0.03838    0.03111    0.02231    0.00000 
H17     H      H_       0.48654    0.00269    0.94350    0.00000 
C18     C      C_R      0.39063    0.01177    0.54649    0.00000 
C19     C      C_R      0.14024    0.98774    0.04615    0.00000 
C20     C      C_R      0.45192    0.97020    0.65037    0.00000 
C21     C      C_R      0.20252    0.02835    0.14989    0.00000 
H22     H      H_       0.03206    0.99881    0.67352    0.00000 
C23     C      C_R      0.20818    0.52970    0.52638    0.00000 
C24     C      C_R      0.45854    0.47141    0.02790    0.00000 
H25     H      H_       0.00864    0.50040    0.95055    0.00000 
C26     C      C_R      0.24514    0.61333    0.60643    0.00000 
C27     C      C_R      0.49682    0.38868    0.10862    0.00000 
H28     H      H_       0.32264    0.65051    0.59264    0.00000 
H29     H      H_       0.07497    0.35285    0.09503    0.00000 
C30     C      C_R      0.24948    0.88921    0.60320    0.00000 
C31     C      C_R      0.00107    0.11223    0.10425    0.00000 
H32     H      H_       0.17015    0.85512    0.58856    0.00000 
H33     H      H_       0.42232    0.14773    0.08989    0.00000 
C34     C      C_R      0.40798    0.88938    0.72755    0.00000 
C35     C      C_R      0.15993    0.10955    0.22781    0.00000 
H36     H      H_       0.45337    0.85517    0.80876    0.00000 
H37     H      H_       0.20624    0.14310    0.30880    0.00000 
C38     C      C_R      0.08886    0.60898    0.72735    0.00000 
C39     C      C_R      0.34089    0.39163    0.22939    0.00000 
H40     H      H_       0.04373    0.64294    0.80661    0.00000 
H41     H      H_       0.29638    0.35753    0.30905    0.00000 
C42     C      C_R      0.04693    0.52508    0.65131    0.00000 
C43     C      C_R      0.29766    0.47471    0.15275    0.00000 
H44     H      H_       0.46867    0.49323    0.67350    0.00000 
C45     C      C_R      0.10816    0.48427    0.55012    0.00000 
C46     C      C_R      0.35783    0.51566    0.05064    0.00000 
C47     C      C_R      0.43331    0.09932    0.46662    0.00000 
C48     C      C_R      0.18152    0.89972    0.96567    0.00000 
C49     C      C_R      0.06738    0.39447    0.47068    0.00000 
C50     C      C_R      0.31604    0.60417    0.96911    0.00000 
Ni51    Ni     Ni4+2    0.74700    0.75149    0.83633    0.00000 
Ni52    Ni     Ni4+2    0.99997    0.24800    0.33918    0.00000 
O53     O      O_R      0.62278    0.34769    0.38287    0.00000 
O54     O      O_R      0.87121    0.65098    0.88129    0.00000 
O55     O      O_R      0.87763    0.14751    0.37718    0.00000 
O56     O      O_R      0.62510    0.85235    0.87626    0.00000 
O57     O      O_R      0.97307    0.35616    0.48299    0.00000 
O58     O      O_R      0.72114    0.64141    0.97988    0.00000 
O59     O      O_R      0.52884    0.13516    0.48108    0.00000 
O60     O      O_R      0.77669    0.86276    0.97940    0.00000 
N61     N      N_R      0.80844    0.85125    0.70483    0.00000 
N62     N      N_R      0.56073    0.14886    0.20605    0.00000 
N63     N      N_R      0.68654    0.65031    0.70584    0.00000 
N64     N      N_R      0.93881    0.35093    0.20804    0.00000 
C65     C      C_R      0.78821    0.97005    0.52198    0.00000 
C66     C      C_R      0.53838    0.03111    0.02231    0.00000 
H67     H      H_       0.98654    0.00269    0.94350    0.00000 
C68     C      C_R      0.89063    0.01177    0.54649    0.00000 
C69     C      C_R      0.64024    0.98774    0.04615    0.00000 
C70     C      C_R      0.95191    0.97020    0.65037    0.00000 
C71     C      C_R      0.70252    0.02835    0.14989    0.00000 
H72     H      H_       0.53206    0.99881    0.67352    0.00000 
C73     C      C_R      0.70818    0.52970    0.52638    0.00000 
C74     C      C_R      0.95855    0.47141    0.02790    0.00000 
H75     H      H_       0.50864    0.50040    0.95055    0.00000 
C76     C      C_R      0.74514    0.61333    0.60643    0.00000 
C77     C      C_R      0.99682    0.38868    0.10862    0.00000 
H78     H      H_       0.82264    0.65051    0.59264    0.00000 
H79     H      H_       0.57497    0.35285    0.09503    0.00000 
C80     C      C_R      0.74948    0.88921    0.60320    0.00000 
C81     C      C_R      0.50107    0.11223    0.10425    0.00000 
H82     H      H_       0.67015    0.85512    0.58856    0.00000 
H83     H      H_       0.92232    0.14773    0.08989    0.00000 
C84     C      C_R      0.90798    0.88938    0.72755    0.00000 
C85     C      C_R      0.65993    0.10955    0.22781    0.00000 
H86     H      H_       0.95337    0.85517    0.80876    0.00000 
H87     H      H_       0.70624    0.14310    0.30880    0.00000 
C88     C      C_R      0.58886    0.60898    0.72735    0.00000 
C89     C      C_R      0.84089    0.39163    0.22939    0.00000 
H90     H      H_       0.54373    0.64294    0.80661    0.00000 
H91     H      H_       0.79638    0.35753    0.30905    0.00000 
C92     C      C_R      0.54693    0.52508    0.65131    0.00000 
C93     C      C_R      0.79766    0.47471    0.15275    0.00000 
H94     H      H_       0.96867    0.49323    0.67350    0.00000 
C95     C      C_R      0.60816    0.48427    0.55012    0.00000 
C96     C      C_R      0.85783    0.51566    0.05064    0.00000 
C97     C      C_R      0.93331    0.09932    0.46662    0.00000 
C98     C      C_R      0.68152    0.89972    0.96567    0.00000 
C99     C      C_R      0.56738    0.39447    0.47068    0.00000 
C100    C      C_R      0.81604    0.60417    0.96911    0.00000 
C101    C      C_3      0.20932    0.00776    0.40597    0.00000 
C102    C      C_3      0.09992    0.94785    0.40115    0.00000 
H103    H      H_       0.11074    0.86063    0.38594    0.00000 
H104    H      H_       0.04829    0.97698    0.31903    0.00000 
H105    H      H_       0.05439    0.96093    0.49152    0.00000 
C106    C      C_3      0.17812    0.12670    0.42372    0.00000 
H107    H      H_       0.13467    0.13645    0.51620    0.00000 
H108    H      H_       0.12418    0.15351    0.34270    0.00000 
H109    H      H_       0.24374    0.18433    0.43000    0.00000 
C110    C      C_3      0.25894    0.98284    0.27230    0.00000 
H111    H      H_       0.27022    0.89519    0.26225    0.00000 
H112    H      H_       0.33759    0.01730    0.25418    0.00000 
H113    H      H_       0.20490    0.00985    0.19148    0.00000 
C114    C      C_3      0.32087    0.98923    0.18817    0.00000 
C115    C      C_3      0.37163    0.04823    0.30813    0.00000 
H116    H      H_       0.37925    0.13542    0.29000    0.00000 
H117    H      H_       0.45368    0.01808    0.33054    0.00000 
H118    H      H_       0.32432    0.03546    0.39717    0.00000 
C119    C      C_3      0.31968    0.87018    0.22992    0.00000 
H120    H      H_       0.26997    0.86076    0.31755    0.00000 
H121    H      H_       0.40194    0.84235    0.25537    0.00000 
H122    H      H_       0.28648    0.81312    0.15931    0.00000 
C123    C      C_3      0.39845    0.01355    0.07621    0.00000 
H124    H      H_       0.40208    0.10121    0.05977    0.00000 
H125    H      H_       0.37795    0.97959    0.98084    0.00000 
H126    H      H_       0.48060    0.98552    0.10187    0.00000 
C127    C      C_3      0.28589    0.49344    0.41285    0.00000 
C128    C      C_3      0.39259    0.55780    0.40865    0.00000 
H129    H      H_       0.37774    0.64422    0.39112    0.00000 
H130    H      H_       0.44352    0.52950    0.32821    0.00000 
H131    H      H_       0.44070    0.54813    0.50020    0.00000 
C132    C      C_3      0.32249    0.37623    0.43407    0.00000 
H133    H      H_       0.36844    0.36983    0.52761    0.00000 
H134    H      H_       0.37566    0.35037    0.35471    0.00000 
H135    H      H_       0.25948    0.31601    0.44050    0.00000 
C136    C      C_3      0.23219    0.51404    0.27763    0.00000 
H137    H      H_       0.21700    0.60097    0.26524    0.00000 
H138    H      H_       0.15463    0.47603    0.25885    0.00000 
H139    H      H_       0.28548    0.48800    0.19849    0.00000 
C140    C      C_3      0.18113    0.51548    0.19041    0.00000 
C141    C      C_3      0.13258    0.45568    0.30847    0.00000 
H142    H      H_       0.18261    0.46625    0.39837    0.00000 
H143    H      H_       0.05173    0.48703    0.33052    0.00000 
H144    H      H_       0.12281    0.36893    0.28836    0.00000 
C145    C      C_3      0.09997    0.49427    0.07697    0.00000 
H146    H      H_       0.09422    0.40694    0.05859    0.00000 
H147    H      H_       0.01907    0.52344    0.10223    0.00000 
H148    H      H_       0.11846    0.52924    0.98258    0.00000 
C149    C      C_3      0.18574    0.63386    0.23475    0.00000 
H150    H      H_       0.23807    0.64104    0.32320    0.00000 
H151    H      H_       0.21805    0.69132    0.16577    0.00000 
H152    H      H_       0.10472    0.66284    0.25979    0.00000 
C153    C      C_3      0.70932    0.00776    0.40597    0.00000 
C154    C      C_3      0.59991    0.94785    0.40115    0.00000 
H155    H      H_       0.61074    0.86063    0.38594    0.00000 
H156    H      H_       0.54829    0.97698    0.31903    0.00000 
H157    H      H_       0.55439    0.96093    0.49152    0.00000 
C158    C      C_3      0.67812    0.12670    0.42372    0.00000 
H159    H      H_       0.63467    0.13645    0.51620    0.00000 
H160    H      H_       0.62418    0.15351    0.34270    0.00000 
H161    H      H_       0.74374    0.18433    0.43000    0.00000 
C162    C      C_3      0.75894    0.98284    0.27230    0.00000 
H163    H      H_       0.77022    0.89519    0.26225    0.00000 
H164    H      H_       0.83759    0.01730    0.25418    0.00000 
H165    H      H_       0.70490    0.00985    0.19148    0.00000 
C166    C      C_3      0.82087    0.98923    0.18817    0.00000 
C167    C      C_3      0.87163    0.04823    0.30813    0.00000 
H168    H      H_       0.87925    0.13542    0.29000    0.00000 
H169    H      H_       0.95369    0.01808    0.33054    0.00000 
H170    H      H_       0.82432    0.03546    0.39717    0.00000 
C171    C      C_3      0.81968    0.87018    0.22992    0.00000 
H172    H      H_       0.76997    0.86077    0.31755    0.00000 
H173    H      H_       0.90194    0.84235    0.25538    0.00000 
H174    H      H_       0.78648    0.81312    0.15931    0.00000 
C175    C      C_3      0.89845    0.01355    0.07621    0.00000 
H176    H      H_       0.90208    0.10121    0.05977    0.00000 
H177    H      H_       0.87795    0.97959    0.98084    0.00000 
H178    H      H_       0.98060    0.98552    0.10188    0.00000 
C179    C      C_2      0.78590    0.49344    0.41285    0.00000 
C180    C      C_3      0.89258    0.55780    0.40864    0.00000 
H181    H      H_       0.94070    0.54814    0.50019    0.00000 
H182    H      H_       0.94352    0.52950    0.32821    0.00000 
H183    H      H_       0.87773    0.64422    0.39112    0.00000 
C184    C      C_3      0.73218    0.51404    0.27763    0.00000 
H185    H      H_       0.71698    0.60096    0.26524    0.00000 
H186    H      H_       0.78548    0.48800    0.19849    0.00000 
H187    H      H_       0.65463    0.47602    0.25886    0.00000 
C188    C      C_1      0.82250    0.37623    0.43407    0.00000 
H189    H      H_       0.86845    0.36984    0.52761    0.00000 
H190    H      H_       0.75949    0.31601    0.44050    0.00000 
H191    H      H_       0.87567    0.35038    0.35472    0.00000 
C192    C      C_1      0.68113    0.51548    0.19041    0.00000 
C193    C      C_1      0.63259    0.45569    0.30848    0.00000 
H194    H      H_       0.62282    0.36894    0.28838    0.00000 
H195    H      H_       0.55173    0.48703    0.33054    0.00000 
H196    H      H_       0.68262    0.46627    0.39837    0.00000 
C197    C      C_1      0.68574    0.63386    0.23474    0.00000 
H198    H      H_       0.73807    0.64105    0.32319    0.00000 
H199    H      H_       0.60472    0.66284    0.25979    0.00000 
H200    H      H_       0.71805    0.69132    0.16576    0.00000 
C201    C      C_1      0.59996    0.49426    0.07698    0.00000 
H202    H      H_       0.59422    0.40694    0.05860    0.00000 
H203    H      H_       0.61846    0.52923    0.98258    0.00000 
H204    H      H_       0.51906    0.52344    0.10224    0.00000 
loop_
_geom_bond_atom_site_label_1      
_geom_bond_atom_site_label_2      
_geom_bond_distance               
_geom_bond_site_symmetry_2        
_ccdc_geom_bond_type              
Ni1     O4        0.166 .         S 
Ni1     O6        0.163 .         S 
Ni1     O8        0.183 .         S 
Ni1     O10       0.184 .         S 
Ni1     N11       0.176 .         S 
Ni1     N13       0.176 .         S 
Ni2     N14       0.178 .         S 
Ni2     O5        0.163 .         S 
Ni2     O7        0.182 .         S 
Ni2     O53       0.164 .         S 
Ni2     O59       0.184 .         S 
Ni2     N62       0.177 .         S 
O3      Ni52      0.164 1_455     S 
O9      Ni52      0.184 1_455     S 
N12     Ni52      0.177 1_455     S 
C15     C101      0.145 1_565     S 
C16     H67       0.099 1_454     S 
H17     C66       0.099 1_556     S 
C18     C47       0.126 .         S 
C19     C48       0.126 1_554     S 
C20     H72       0.088 .         S 
C21     C114      0.130 1_545     S 
H22     C70       0.088 1_455     S 
C23     C127      0.142 .         S 
C24     H75       0.097 1_554     S 
H25     C74       0.097 1_456     S 
C26     H28       0.087 .         S 
C27     H79       0.087 .         S 
H29     C77       0.087 1_455     S 
C30     H32       0.088 .         S 
C31     H83       0.088 1_455     S 
H33     C81       0.088 .         S 
C34     H36       0.099 .         S 
C35     H37       0.099 .         S 
C38     H40       0.097 .         S 
C39     H41       0.097 .         S 
C42     H94       0.087 1_455     S 
C43     C140      0.129 .         S 
H44     C92       0.087 .         S 
C45     C49       0.127 .         S 
C46     C50       0.127 1_554     S 
Ni51    O54       0.166 .         S 
Ni51    O56       0.163 .         S 
Ni51    O58       0.183 .         S 
Ni51    O60       0.184 .         S 
Ni51    N61       0.176 .         S 
Ni51    N63       0.176 .         S 
Ni52    O55       0.163 .         S 
Ni52    O57       0.182 .         S 
Ni52    N64       0.178 .         S 
C65     C153      0.145 1_565     S 
C68     C97       0.126 .         S 
C69     C98       0.126 1_554     S 
C71     C166      0.130 1_545     S 
C73     C179      0.142 .         S 
C76     H78       0.087 .         S 
C80     H82       0.088 .         S 
C84     H86       0.099 .         S 
C85     H87       0.099 .         S 
C88     H90       0.097 .         S 
C89     H91       0.097 .         S 
C95     C99       0.127 .         S 
C96     C100      0.127 1_554     S 
C101    C102      0.125 1_545     S 
C101    C106      0.124 .         S 
C101    C110      0.145 1_545     S 
C102    H103      0.089 .         S 
C102    H104      0.101 .         S 
C102    H105      0.102 .         S 
C106    H107      0.103 .         S 
C106    H108      0.101 .         S 
C106    H109      0.088 .         S 
C110    H111      0.089 .         S 
C110    H112      0.088 1_565     S 
C110    H113      0.101 1_565     S 
C114    C115      0.143 1_565     S 
C114    C119      0.126 .         S 
C114    C123      0.138 1_565     S 
C115    H116      0.089 .         S 
C115    H117      0.090 .         S 
C115    H118      0.102 .         S 
C119    H120      0.101 .         S 
C119    H121      0.090 .         S 
C119    H122      0.097 .         S 
C123    H124      0.089 .         S 
C123    H125      0.103 1_544     S 
C123    H126      0.091 1_545     S 
C127    C128      0.125 .         S 
C127    C132      0.125 .         S 
C127    C136      0.147 .         S 
C128    H129      0.089 .         S 
C128    H130      0.099 .         S 
C128    H131      0.104 .         S 
C132    H133      0.104 .         S 
C132    H134      0.099 .         S 
C132    H135      0.087 .         S 
C136    H137      0.089 .         S 
C136    H138      0.088 .         S 
C136    H139      0.099 .         S 
C140    C141      0.141 .         S 
C140    C145      0.141 .         S 
C140    C149      0.126 .         S 
C141    H142      0.103 .         S 
C141    H143      0.089 .         S 
C141    H144      0.090 .         S 
C145    H146      0.089 .         S 
C145    H147      0.090 .         S 
C145    H148      0.102 1_554     S 
C149    H150      0.103 .         S 
C149    H151      0.095 .         S 
C149    H152      0.090 .         S 
C153    C154      0.125 1_545     S 
C153    C158      0.124 .         S 
C153    C162      0.145 1_545     S 
C154    H155      0.089 .         S 
C154    H156      0.101 .         S 
C154    H157      0.102 .         S 
C158    H159      0.103 .         S 
C158    H160      0.101 .         S 
C158    H161      0.088 .         S 
C162    H163      0.089 .         S 
C162    H164      0.088 1_565     S 
C162    H165      0.101 1_565     S 
C166    C167      0.143 1_565     S 
C166    C171      0.126 .         S 
C166    C175      0.138 1_565     S 
C167    H168      0.089 .         S 
C167    H169      0.090 .         S 
C167    H170      0.102 .         S 
C171    H172      0.101 .         S 
C171    H173      0.090 .         S 
C171    H174      0.097 .         S 
C175    H176      0.089 .         S 
C175    H177      0.103 1_544     S 
C175    H178      0.091 1_545     S 
C179    C180      0.125 .         S 
C179    C184      0.147 .         S 
C180    H181      0.104 .         S 
C180    H182      0.099 .         S 
C180    H183      0.089 .         S 
C184    H185      0.089 .         S 
C184    H186      0.099 .         S 
C184    H187      0.088 .         S 
O3      C49       0.114 .         A 
O4      C50       0.114 .         A 
O5      C47       0.116 .         A 
O6      C48       0.116 .         A 
O7      C99       0.103 .         A 
O8      C50       0.103 .         A 
O9      C97       0.103 1_455     A 
O10     C48       0.103 .         A 
N11     C30       0.123 .         A 
N11     C34       0.109 .         A 
N12     C31       0.124 .         A 
N12     C35       0.109 .         A 
N13     C26       0.121 .         A 
N13     C38       0.108 .         A 
N14     C27       0.121 .         A 
N14     C39       0.108 .         A 
C15     C18       0.113 1_565     A 
C15     C30       0.121 .         A 
C16     C19       0.113 1_545     A 
C16     C31       0.121 .         A 
C18     C20       0.128 1_545     A 
C19     C21       0.128 1_565     A 
C20     C34       0.120 .         A 
C21     C35       0.120 .         A 
C23     C26       0.122 .         A 
C23     C45       0.112 .         A 
C24     C27       0.122 .         A 
C24     C46       0.112 .         A 
C38     C42       0.121 .         A 
C39     C43       0.121 .         A 
C42     C45       0.125 .         A 
C43     C46       0.125 .         A 
C47     O59       0.103 .         A 
C49     O57       0.103 1_455     A 
O53     C99       0.114 .         A 
O54     C100      0.114 .         A 
O55     C97       0.116 .         A 
O56     C98       0.116 .         A 
O58     C100      0.103 .         A 
O60     C98       0.103 .         A 
N61     C80       0.123 .         A 
N61     C84       0.109 .         A 
N62     C85       0.109 .         A 
N62     C81       0.124 .         A 
N63     C76       0.121 .         A 
N63     C88       0.108 .         A 
N64     C77       0.121 .         A 
N64     C89       0.108 .         A 
C65     C68       0.113 1_565     A 
C65     C80       0.121 .         A 
C66     C69       0.113 1_545     A 
C66     C81       0.121 .         A 
C68     C70       0.128 1_545     A 
C69     C71       0.128 1_565     A 
C70     C84       0.120 .         A 
C71     C85       0.120 .         A 
C73     C76       0.122 .         A 
C73     C95       0.112 .         A 
C74     C77       0.122 .         A 
C74     C96       0.112 .         A 
C88     C92       0.121 .         A 
C89     C93       0.121 .         A 
C92     C95       0.125 .         A 
C93     C96       0.125 .         A 
