data_NiPyC2_relax_sc211_meta_functionalized_O-CH2-CH3_lammps_pbesol_relax_PM
_symmetry_space_group_name_H-M	'P1'
_cell_length_a	12.505617
_cell_length_b	12.523412
_cell_length_c	10.276810
_cell_angle_alpha	90.000000
_cell_angle_beta	91.268973
_cell_angle_gamma	90.000000
_symmetry_Int_Tables_number 1

loop_
_symmetry_equiv_pos_as_xyz
'x,y,z'

loop_
_atom_site_label
_atom_site_type_symbol
_atom_site_fract_x
_atom_site_fract_y
_atom_site_fract_z
C1	C	0.294770	0.967294	0.536603
C2	C	0.061661	0.042282	0.017500
C3	C	0.402513	-0.002847	0.551084
C4	C	0.141567	0.971588	0.067159
C5	C	0.460331	0.945931	0.651409
C6	C	0.188450	-0.000716	0.187048
C7	C	0.177343	0.576782	0.487544
C8	C	0.477182	0.464929	0.038625
C9	C	0.218982	0.651097	0.580734
C10	C	0.504974	0.391701	0.140225
C11	C	0.249827	0.891777	0.618834
C12	C	1.023191	0.126176	0.098551
C13	C	0.412279	0.869086	0.729722
C14	C	0.152812	0.088817	0.256282
C15	C	0.077942	0.620457	0.718695
C16	C	0.330141	0.376707	0.207986
C17	C	0.034611	0.544420	0.632179
C18	C	0.299294	0.458758	0.122314
C19	C	0.090696	0.509667	0.524245
C20	C	0.371102	0.508319	0.039297
C21	C	0.444215	0.080826	0.468633
C22	C	0.182472	0.883558	0.986595
C23	C	0.057896	0.410790	0.456331
C24	C	0.328930	0.597595	0.961114
C25	C	0.811698	0.926655	0.488389
C26	C	0.521191	1.040201	0.024074
C27	C	0.904242	-0.012011	0.524408
C28	C	0.628500	1.000356	0.023883
C29	C	0.961701	0.949980	0.632739
C30	C	0.702981	0.053633	0.104627
C31	C	0.702403	0.524967	0.546939
C32	C	0.938124	0.460414	0.021905
C33	C	0.742641	0.605478	0.627107
C34	C	-0.026657	0.374767	0.103720
C35	C	0.768285	0.855787	0.582885
C36	C	0.495244	0.110698	0.127454
C37	C	0.917640	0.875561	0.718585
C38	C	0.672764	0.131565	0.194106
C39	C	0.577061	0.627570	0.722677
C40	C	0.840247	0.410467	0.251548
C41	C	0.532596	0.548301	0.642608
C42	C	0.807325	0.501397	0.181883
C43	C	0.594918	0.492949	0.552834
C44	C	0.857483	0.530187	0.066946
C45	C	0.939565	0.085607	0.456245
C46	C	0.668389	0.906634	0.954235
C47	C	0.558260	0.401772	0.477939
C48	C	0.817371	0.619391	0.986866
C49	C	0.617188	0.042588	0.724366
C50	C	0.566975	0.143845	0.750082
C51	C	-0.016032	0.124723	0.831431
C52	C	0.864618	0.128110	0.838858
C53	C	0.252516	0.667854	0.304890
C54	C	0.364846	0.703235	0.338092
C55	C	0.637860	0.407560	0.947059
C56	C	0.704049	0.409483	0.829887
C57	C	0.731962	0.850590	0.288340
C58	C	0.668868	0.760635	0.343197
C59	C	0.354678	0.091789	0.934435
C60	C	0.284129	0.090765	0.817338
C61	C	0.368606	0.464229	0.707859
C62	C	0.411448	0.366908	0.762244
C63	C	1.025589	0.380339	0.846256
C64	C	0.144674	0.379726	0.863453
H1	H	0.244239	1.004987	0.463187
H2	H	0.040715	0.981012	0.656105
H3	H	0.254961	0.952975	0.227301
H4	H	0.292429	0.693304	0.560146
H5	H	0.043208	0.328344	0.078140
H6	H	0.166049	0.870114	0.611104
H7	H	0.412176	0.128562	0.146304
H8	H	0.459571	0.831060	0.806281
H9	H	0.191754	0.115025	0.345983
H10	H	0.038234	0.641751	0.807624
H11	H	0.273690	0.338614	0.271494
H12	H	0.216681	0.484766	0.120989
H13	H	0.786250	0.029505	0.101973
H14	H	0.755988	0.484511	0.481656
H15	H	0.826216	0.629727	0.624309
H16	H	0.588221	0.370670	0.158351
H17	H	0.690364	0.820412	0.565290
H18	H	0.954220	0.173167	0.067283
H19	H	0.960118	0.851378	0.806933
H20	H	0.730063	0.169316	0.260463
H21	H	0.527682	0.666648	0.794236
H22	H	0.799581	0.383819	0.337825
H23	H	0.958041	0.509356	0.654978
H24	H	0.740741	0.548157	0.217496
H25	H	0.595167	0.069860	0.530069
H26	H	0.702157	0.027745	0.739691
H27	H	0.605966	0.203889	0.688759
H28	H	0.587084	0.170115	0.849396
H29	H	0.480969	0.142264	0.733208
H30	H	0.010507	0.118782	0.730479
H31	H	0.026770	0.193274	0.873731
H32	H	0.832672	0.181367	0.763493
H33	H	0.837203	0.155237	0.933971
H34	H	0.834611	0.046884	0.825700
H35	H	0.192043	0.729173	0.324645
H36	H	0.244301	0.645206	0.202093
H37	H	0.417743	0.636219	0.360467
H38	H	0.367395	0.760169	0.419403
H39	H	0.394238	0.746423	0.253615
H40	H	0.687359	0.428083	0.034039
H41	H	0.603040	0.327600	0.962056
H42	H	0.742917	0.486267	0.814741
H43	H	0.766037	0.348723	0.843020
H44	H	0.657980	0.389347	0.741455
H45	H	0.806642	0.822392	0.244383
H46	H	0.687054	0.892612	0.211538
H47	H	0.596454	0.787820	0.390791
H48	H	0.715472	0.709960	0.410533
H49	H	0.645889	0.712433	0.258403
H50	H	0.309280	0.067478	0.020448
H51	H	0.386966	0.172493	0.952348
H52	H	0.244157	0.014527	0.800612
H53	H	0.222004	0.150186	0.833532
H54	H	0.325238	0.112890	0.728420
H55	H	0.283319	0.482098	0.707247
H56	H	0.404332	0.419708	0.500137
H57	H	0.497948	0.361457	0.757854
H58	H	0.381600	0.357831	0.861477
H59	H	0.372399	0.300794	0.708487
H60	H	1.001329	0.384443	0.743125
H61	H	0.984086	0.310685	0.885699
H62	H	0.178542	0.324187	0.793641
H63	H	0.170494	0.356216	0.962120
H64	H	0.174953	0.460397	0.848141
N1	N	0.308756	0.844279	0.715045
N2	N	0.067829	0.148112	0.214605
N3	N	0.174305	0.665635	0.696473
N4	N	0.434240	0.346929	0.217464
N5	N	0.817995	0.835942	0.696872
N6	N	0.567854	0.154902	0.207149
N7	N	0.680673	0.654503	0.715855
N8	N	0.925230	0.351136	0.214464
Ni1	Ni	0.249320	0.744862	0.843569
Ni2	Ni	0.500989	0.243998	0.340208
Ni3	Ni	0.744101	0.756369	0.842788
Ni4	Ni	0.996915	0.249543	0.340066
O1	O	0.115102	0.362220	0.372528
O2	O	0.382361	0.656146	0.883399
O3	O	0.387743	0.137281	0.393193
O4	O	0.128029	0.839975	0.892593
O5	O	0.456636	0.364144	0.487000
O6	O	0.229294	0.624942	0.967689
O7	O	0.028777	0.131580	0.484768
O8	O	0.276876	0.845876	1.003165
O9	O	0.615734	0.344650	0.408361
O10	O	0.869330	0.661282	0.892951
O11	O	0.882553	0.135048	0.369572
O12	O	0.610815	0.838414	0.891529
O13	O	0.969381	0.363649	0.481779
O14	O	0.724594	0.659710	1.003872
O15	O	0.547935	0.108896	0.470429
O16	O	0.769368	0.884453	0.956039
O17	O	0.569883	-0.043128	0.674771
O18	O	1.029215	0.031730	0.896100
O19	O	0.215836	0.570132	0.369629
O20	O	0.547053	0.483632	0.947357
O21	O	0.768218	0.939281	0.371620
O22	O	0.448615	1.019815	0.932572
O23	O	0.421529	0.540062	0.647856
O24	O	-0.024356	0.472755	0.904833
