data_NiPyC2_relax_sc211_meta_functionalized_O-CH3_lammps_pbesol_relax_PM
_symmetry_space_group_name_H-M	'P1'
_cell_length_a	12.505617
_cell_length_b	12.523412
_cell_length_c	10.276810
_cell_angle_alpha	90.000000
_cell_angle_beta	91.268973
_cell_angle_gamma	90.000000
_symmetry_Int_Tables_number 1

loop_
_symmetry_equiv_pos_as_xyz
'x,y,z'

loop_
_atom_site_label
_atom_site_type_symbol
_atom_site_fract_x
_atom_site_fract_y
_atom_site_fract_z
C1	C	0.484486	0.912474	0.600572
C2	C	0.065816	0.025613	0.060822
C3	C	0.434227	0.010043	0.579496
C4	C	0.165756	0.974252	0.086828
C5	C	0.343932	0.034225	0.655476
C6	C	0.227448	0.013117	0.191202
C7	C	0.258027	0.540867	0.541581
C8	C	0.491830	0.484143	0.077642
C9	C	0.290791	0.624304	0.628717
C10	C	0.532038	0.393860	0.141915
C11	C	0.443070	0.839197	0.689578
C12	C	0.030239	0.104682	0.149873
C13	C	0.302600	0.953656	0.737705
C14	C	0.189936	0.095916	0.269986
C15	C	0.132860	0.612068	0.742951
C16	C	0.362949	0.349909	0.214206
C17	C	0.095646	0.530316	0.661078
C18	C	0.316493	0.442362	0.153388
C19	C	0.158464	0.489190	0.562812
C20	C	0.383380	0.510902	0.079293
C21	C	0.474652	0.089103	0.486018
C22	C	0.207116	0.886891	1.006217
C23	C	0.117878	0.396213	0.489382
C24	C	0.346903	0.600906	0.997819
C25	C	0.819259	0.003684	0.603926
C26	C	0.552204	0.004285	0.028675
C27	C	0.928620	0.004410	0.576529
C28	C	0.648781	0.952011	0.052470
C29	C	0.986436	0.911682	0.619105
C30	C	0.710324	0.982669	0.164118
C31	C	0.674599	0.565557	0.492766
C32	C	0.949067	0.406664	0.011251
C33	C	0.710765	0.643295	0.584610
C34	C	0.002956	0.344816	0.109478
C35	C	0.772006	0.920888	0.674323
C36	C	0.521652	0.087768	0.110719
C37	C	0.933880	0.833923	0.698058
C38	C	0.676363	0.069979	0.241190
C39	C	0.644372	0.543328	0.755982
C40	C	0.885466	0.402155	0.265807
C41	C	0.612349	0.461262	0.672374
C42	C	0.838182	0.474338	0.177812
C43	C	0.632101	0.468154	0.540246
C44	C	0.872590	0.483971	0.050352
C45	C	0.970695	0.099846	0.508511
C46	C	0.688877	0.866438	0.969739
C47	C	0.599567	0.376770	0.458564
C48	C	0.832787	0.575232	0.972183
C49	C	0.223640	0.162203	0.741145
C50	C	-0.083831	0.064276	0.922753
C51	C	0.412004	0.571956	0.416301
C52	C	0.160976	0.551042	0.202274
C53	C	0.140118	0.924981	0.483250
C54	C	0.853206	0.940208	0.311743
C55	C	0.704287	0.686897	0.318096
C56	C	0.889379	0.390633	0.790862
H1	H	0.556612	0.891958	0.548787
H2	H	0.499370	-0.019272	0.948377
H3	H	0.306072	0.979820	0.212587
H4	H	0.367553	0.663455	0.616955
H5	H	0.069517	0.294705	0.081065
H6	H	0.483357	0.764465	0.712844
H7	H	0.446377	0.129946	0.096582
H8	H	0.227980	0.966500	0.787366
H9	H	0.237437	0.127332	0.350912
H10	H	0.086618	0.640764	0.823925
H11	H	0.312414	0.300120	0.273871
H12	H	0.572295	0.391605	0.711159
H13	H	0.768308	0.069100	0.570711
H14	H	0.547256	0.535542	1.027251
H15	H	0.750537	0.715594	0.552815
H16	H	0.616488	0.374006	0.142380
H17	H	0.687515	0.922005	0.696225
H18	H	0.951260	0.140036	0.137557
H19	H	0.981120	0.767537	0.736231
H20	H	0.723861	0.097768	0.324600
H21	H	0.630718	0.540549	0.859407
H22	H	0.857141	0.393476	0.364083
H23	H	1.017331	0.497177	0.677076
H24	H	0.773325	0.523639	0.211104
H25	H	0.151887	0.112864	0.727115
H26	H	0.257599	0.152396	0.839775
H27	H	0.205458	0.245071	0.718433
H28	H	0.855035	0.048488	0.995061
H29	H	-0.062389	0.149177	0.920117
H30	H	-0.110378	0.036015	0.827669
H31	H	0.448156	0.532509	0.334054
H32	H	0.390664	0.654990	0.393168
H33	H	0.465632	0.568373	0.501966
H34	H	0.104139	0.567133	0.122199
H35	H	0.218938	0.615195	0.216300
H36	H	0.116476	0.535087	0.291130
H37	H	0.086565	0.927261	0.397593
H38	H	0.208594	0.872594	0.469553
H39	H	0.165890	1.006619	0.507124
H40	H	0.922379	0.887348	0.307972
H41	H	0.877329	1.024090	0.321983
H42	H	0.800632	0.919159	0.391915
H43	H	0.693689	0.682049	0.212884
H44	H	0.652412	0.747625	0.360672
H45	H	0.788340	0.702164	0.344769
H46	H	-0.080723	0.349149	0.706004
H47	H	0.878201	0.475977	0.770161
H48	H	0.814752	0.356768	0.826392
N1	N	0.351080	0.859166	0.752640
N2	N	0.091555	0.139020	0.249476
N3	N	0.230711	0.656100	0.727039
N4	N	0.467353	0.328675	0.210452
N5	N	0.829713	0.837155	0.722245
N6	N	0.584041	0.120291	0.213014
N7	N	0.697936	0.630070	0.712602
N8	N	0.970424	0.341264	0.232483
Ni1	Ni	0.287002	0.751182	0.868687
Ni2	Ni	0.532152	0.225801	0.339725
Ni3	Ni	0.763807	0.725877	0.843180
Ni4	Ni	0.037285	0.248331	0.371960
O1	O	0.171402	0.338042	0.411860
O2	O	0.410592	0.652745	0.923995
O3	O	0.412733	0.134023	0.401202
O4	O	0.154271	0.840170	0.914004
O5	O	0.508810	0.332735	0.478811
O6	O	0.249664	0.633869	-0.009221
O7	O	0.065666	0.135969	0.521772
O8	O	0.303850	0.853062	0.021802
O9	O	0.656181	0.333715	0.371099
O10	O	0.886786	0.621427	0.883093
O11	O	0.910321	0.154361	0.429331
O12	O	0.633269	0.820676	0.879343
O13	O	1.019825	0.365427	0.501816
O14	O	0.741025	0.616530	0.992959
O15	O	0.572831	0.116352	0.485028
O16	O	0.785767	0.831906	0.981298
O17	O	0.303312	0.130725	0.648477
O18	O	0.010675	0.001712	0.954817
O19	O	0.315453	0.512524	0.442208
O20	O	0.213579	0.451174	0.175493
O21	O	0.084072	0.880321	0.591750
O22	O	0.796279	0.925794	0.190829
O23	O	0.673548	0.582136	0.366370
O24	O	-0.028090	0.377506	0.891700
