data_NiPyC2_relax_sc211_meta_functionalized_PH2_lammps_pbesol_relax_PM
_symmetry_space_group_name_H-M	'P1'
_cell_length_a	12.505617
_cell_length_b	12.523412
_cell_length_c	10.276810
_cell_angle_alpha	90.000000
_cell_angle_beta	91.268973
_cell_angle_gamma	90.000000
_symmetry_Int_Tables_number 1

loop_
_symmetry_equiv_pos_as_xyz
'x,y,z'

loop_
_atom_site_label
_atom_site_type_symbol
_atom_site_fract_x
_atom_site_fract_y
_atom_site_fract_z
C1	C	0.321380	0.918459	0.496513
C2	C	0.029650	0.070624	0.033329
C3	C	0.401780	-0.012087	0.544188
C4	C	0.133876	1.030164	0.050323
C5	C	0.441242	-0.025386	0.671157
C6	C	0.199862	0.075817	0.147186
C7	C	0.179303	0.537361	0.545356
C8	C	0.458251	0.455314	0.065424
C9	C	0.223096	0.617115	0.623020
C10	C	0.494217	0.370795	0.140930
C11	C	0.272060	0.849914	0.585603
C12	C	0.989307	0.147043	0.117518
C13	C	0.392395	0.900348	0.751401
C14	C	0.153360	0.150049	0.231434
C15	C	0.099669	0.584070	0.785429
C16	C	0.329921	0.366580	0.246308
C17	C	0.053510	0.499050	0.715434
C18	C	0.289269	0.452013	0.172423
C19	C	0.095089	0.476313	0.591941
C20	C	0.355785	0.498176	0.080677
C21	C	0.439545	0.074766	0.463211
C22	C	0.155230	0.940848	0.964493
C23	C	0.053701	0.392554	0.507468
C24	C	0.337273	0.587439	0.992447
C25	C	0.760461	0.011634	0.548879
C26	C	0.539306	0.030890	1.003017
C27	C	0.870096	0.027091	0.533496
C28	C	0.633936	0.975038	0.028074
C29	C	0.943467	0.953263	0.589529
C30	C	0.694467	0.997191	0.142552
C31	C	0.741706	0.508391	0.525123
C32	C	0.958029	0.558822	0.137456
C33	C	0.770153	0.597449	0.600414
C34	C	-0.011490	0.476375	0.224048
C35	C	0.726609	0.924043	0.620467
C36	C	0.507424	0.108377	0.090697
C37	C	0.903106	0.866917	0.659908
C38	C	0.658438	0.078826	0.225004
C39	C	0.596685	0.618534	0.680678
C40	C	0.838811	0.374173	0.170408
C41	C	0.564381	0.527314	0.612527
C42	C	0.802358	0.451983	0.082943
C43	C	0.637146	0.470637	0.535067
C44	C	0.862580	0.544287	0.063054
C45	C	0.911463	0.118821	0.463062
C46	C	0.672374	0.893715	0.939211
C47	C	0.590415	0.376965	0.473330
C48	C	0.826119	0.624445	0.968427
H1	H	0.490489	0.015801	0.916648
H2	H	0.285176	0.060077	0.155383
H3	H	0.210756	0.521159	0.449091
H4	H	0.294421	0.660452	0.595093
H5	H	0.060197	0.483927	0.285281
H6	H	0.211771	0.793056	0.552364
H7	H	0.433973	0.154006	0.077011
H8	H	0.420027	0.887217	0.850982
H9	H	0.198014	0.181163	0.314768
H10	H	0.072950	0.603599	0.882405
H11	H	0.282380	0.328745	0.320487
H12	H	0.207430	0.478727	0.184970
H13	H	0.701257	0.067894	0.511115
H14	H	0.507489	0.022789	0.708511
H15	H	0.801119	0.467894	0.467277
H16	H	0.851471	0.628616	0.602022
H17	H	0.573785	0.336550	0.132827
H18	H	0.642649	0.908342	0.637369
H19	H	0.907626	0.176798	0.108793
H20	H	0.955296	0.807465	0.706151
H21	H	0.703487	0.103006	0.311961
H22	H	0.542940	0.667200	0.738454
H23	H	0.792681	0.302341	0.189763
H24	H	0.726757	0.438847	0.029788
H25	H	0.373739	0.905513	0.261056
H26	H	0.232681	0.812833	0.320584
H27	H	0.874413	-0.051142	0.911206
H28	H	0.970784	0.075726	0.787162
H29	H	0.855659	0.457578	0.742688
H30	H	-0.038541	0.319826	0.731285
H31	H	0.664531	0.600484	0.984920
H32	H	0.534671	0.452723	0.842404
H33	H	0.124194	0.050521	0.644603
H34	H	0.103871	0.989596	0.442699
H35	H	0.825433	0.952247	0.319633
H36	H	0.786434	0.817703	0.186842
H37	H	0.358663	0.504346	0.530291
H38	H	0.399716	0.418284	0.719458
H39	H	0.131508	0.647769	0.192368
H40	H	0.045052	0.716807	0.021688
N1	N	0.307336	0.841361	0.711145
N2	N	0.050606	0.183028	0.217848
N3	N	0.181164	0.643187	0.739135
N4	N	0.429962	0.326994	0.229996
N5	N	0.797146	0.855358	0.676536
N6	N	0.566317	0.130955	0.199173
N7	N	0.700287	0.649141	0.678164
N8	N	0.932439	0.385298	0.237508
Ni1	Ni	0.243148	0.755422	0.845066
Ni2	Ni	0.500180	0.217437	0.332679
Ni3	Ni	0.747630	0.756346	0.804010
Ni4	Ni	0.986224	0.269089	0.355008
O1	O	0.112380	0.351308	0.418868
O2	O	0.420132	0.600993	0.905863
O3	O	0.382805	0.109142	0.365134
O4	O	0.070423	0.922651	0.875163
O5	O	0.485361	0.357832	0.519169
O6	O	0.261407	0.651544	0.989456
O7	O	0.009431	0.147973	0.482431
O8	O	0.231741	0.878086	0.966597
O9	O	0.623085	0.316575	0.388856
O10	O	0.882851	0.672278	0.889393
O11	O	0.857148	0.174232	0.380270
O12	O	0.614830	0.844578	0.855070
O13	O	0.956710	0.359803	0.511062
O14	O	0.722708	0.655007	0.965144
O15	O	0.528007	0.124066	0.485460
O16	O	0.772830	0.865750	0.945771
P1	P	0.278696	0.916077	0.331535
P2	P	0.973195	0.007018	0.896752
P3	P	0.954812	0.419945	0.794335
P4	P	0.525945	0.527000	0.946971
P5	P	0.085194	0.961371	0.573520
P6	P	0.812949	0.927260	0.185858
P7	P	0.443464	0.457409	0.602115
P8	P	0.028771	0.680962	0.149911
