data_NiPyC2_relax_sc211_meta_functionalized_CH2-CH2-CH3_lammps_pbesol_relax_PM
_symmetry_space_group_name_H-M	'P1'
_cell_length_a	12.505617
_cell_length_b	12.523412
_cell_length_c	10.276810
_cell_angle_alpha	90.000000
_cell_angle_beta	91.268973
_cell_angle_gamma	90.000000
_symmetry_Int_Tables_number 1

loop_
_symmetry_equiv_pos_as_xyz
'x,y,z'

loop_
_atom_site_label
_atom_site_type_symbol
_atom_site_fract_x
_atom_site_fract_y
_atom_site_fract_z
C1	C	0.273454	0.960178	0.546317
C2	C	-0.028191	0.020726	0.039309
C3	C	0.381887	-0.004486	0.549719
C4	C	0.071907	0.973797	0.027405
C5	C	0.454188	0.938478	0.629155
C6	C	0.159649	0.015761	0.100710
C7	C	0.193252	0.567882	0.491107
C8	C	0.512423	0.468632	0.073030
C9	C	0.224538	0.649201	0.576281
C10	C	0.524492	0.379582	0.155732
C11	C	0.242584	0.896219	0.652701
C12	C	0.959961	0.113304	0.112971
C13	C	0.418290	0.861315	0.717106
C14	C	0.140500	0.110149	0.173776
C15	C	0.070540	0.630546	0.697702
C16	C	0.367582	0.414170	0.264581
C17	C	0.030782	0.549484	0.613008
C18	C	0.350440	0.506719	0.189302
C19	C	0.101060	0.509669	0.517011
C20	C	0.421914	0.534146	0.092100
C21	C	0.423179	0.088401	0.478478
C22	C	0.085260	0.882228	0.935018
C23	C	0.081887	0.404315	0.461349
C24	C	0.402588	0.631290	1.009174
C25	C	0.796532	0.956742	0.487246
C26	C	0.549465	0.058094	0.018708
C27	C	0.867307	0.035736	0.529918
C28	C	0.642046	-0.001629	0.051179
C29	C	0.895009	0.042352	0.662990
C30	C	0.698050	0.020847	0.166598
C31	C	0.712715	0.560095	0.510304
C32	C	0.983390	0.503562	0.064089
C33	C	0.749377	0.641892	0.593177
C34	C	0.005610	0.417476	0.149329
C35	C	0.759909	0.880715	0.575428
C36	C	0.519546	0.139615	0.106668
C37	C	0.854609	0.961070	0.743529
C38	C	0.656182	0.094674	0.254162
C39	C	0.597996	0.631599	0.719581
C40	C	0.839476	0.420365	0.243194
C41	C	0.551687	0.554958	0.633334
C42	C	0.811849	0.510739	0.168225
C43	C	0.617906	0.507495	0.538102
C44	C	0.881206	0.552141	0.074992
C45	C	0.913860	0.114611	0.441728
C46	C	0.681349	0.911269	0.969199
C47	C	0.590117	0.402565	0.483069
C48	C	0.840140	0.638723	0.989288
C49	C	0.196618	0.968982	0.437087
C50	C	0.094321	0.904470	0.447940
C51	C	0.027672	0.891814	0.328114
C52	C	0.261787	0.958043	0.106165
C53	C	0.353059	-0.002371	0.189164
C54	C	0.432235	0.916537	0.231280
C55	C	0.926425	0.508326	0.625781
C56	C	0.874701	0.487209	0.747145
C57	C	0.905835	0.373526	0.788992
C58	C	0.593405	0.486905	0.975587
C59	C	0.681264	0.406733	0.958143
C60	C	0.654937	0.306390	0.886627
C61	C	0.953824	0.131158	0.724002
C62	C	0.073141	0.112236	0.760577
C63	C	0.150371	0.166641	0.676813
C64	C	0.479798	0.030625	0.908101
C65	C	0.389498	0.103271	0.865739
C66	C	0.424795	0.199067	0.791835
C67	C	0.441264	0.531180	0.632915
C68	C	0.371397	0.513330	0.741200
C69	C	0.286432	0.430851	0.707804
C70	C	0.069588	0.530180	0.975036
C71	C	0.167078	0.458616	0.979913
C72	C	0.154695	0.344692	0.941469
H1	H	0.245200	0.545715	0.412150
H2	H	0.299442	0.691887	0.565181
H3	H	0.084695	0.383269	0.151804
H4	H	0.158194	0.881740	0.668468
H5	H	0.457019	0.196313	0.079245
H6	H	0.472510	0.817558	0.781362
H7	H	0.204840	0.147266	0.230957
H8	H	0.021316	0.663272	0.774089
H9	H	0.311362	0.388604	0.337774
H10	H	0.282465	0.557801	0.209333
H11	H	0.769398	0.950803	0.386653
H12	H	0.899950	0.983054	0.000530
H13	H	0.539396	0.954862	0.624958
H14	H	0.771240	0.977970	0.191482
H15	H	0.761389	0.535742	0.429040
H16	H	0.825374	0.681670	0.577493
H17	H	0.594112	0.329061	0.146647
H18	H	0.702930	0.820029	0.544585
H19	H	0.882692	0.151900	0.122821
H20	H	0.871090	0.964681	0.846503
H21	H	0.692696	0.109031	0.349115
H22	H	0.553003	0.662356	0.801115
H23	H	0.783909	0.384377	0.310553
H24	H	0.733412	0.546177	0.180315
H25	H	0.238740	0.939473	0.350902
H26	H	0.180836	0.053520	0.412968
H27	H	0.046153	0.940188	0.526690
H28	H	0.116108	0.823415	0.484215
H29	H	0.001704	0.969487	0.288591
H30	H	0.955210	0.844685	0.345202
H31	H	0.071575	0.851283	0.250537
H32	H	0.288617	0.945113	0.005355
H33	H	0.242338	0.874777	0.134061
H34	H	0.325447	0.045770	0.273032
H35	H	0.393122	0.063519	0.134442
H36	H	0.395075	0.856517	0.294141
H37	H	0.500471	0.951284	0.284974
H38	H	0.463440	0.872121	0.147646
H39	H	0.984380	0.358152	0.599919
H40	H	0.888554	0.477227	0.536962
H41	H	0.787490	0.490838	0.738274
H42	H	0.902391	0.544695	0.820568
H43	H	0.858614	0.315899	0.732215
H44	H	0.886875	0.361866	0.891511
H45	H	0.991589	0.357243	0.780220
H46	H	0.554401	0.505361	0.880969
H47	H	0.631989	0.566482	0.997974
H48	H	0.746711	0.448059	0.908983
H49	H	0.717947	0.387323	0.054881
H50	H	0.617493	0.322314	0.790799
H51	H	0.726498	0.257361	0.872064
H52	H	0.597965	0.257292	0.941276
H53	H	0.914047	0.151022	0.815439
H54	H	0.949931	0.200426	0.659777
H55	H	0.086293	0.024754	0.763073
H56	H	0.087180	0.137822	0.862886
H57	H	0.143800	0.254384	0.680928
H58	H	0.135434	0.145892	0.573717
H59	H	0.232847	0.145222	0.703740
H60	H	0.530689	0.011404	0.825144
H61	H	0.446763	0.951030	0.934077
H62	H	0.334686	0.055345	0.803046
H63	H	0.339516	0.125001	0.949382
H64	H	0.358949	0.231845	0.730982
H65	H	0.451951	0.263765	0.857306
H66	H	0.490789	0.181319	0.726383
H67	H	0.459476	0.386836	0.587755
H68	H	0.404698	0.520418	0.535816
H69	H	0.333652	0.591224	0.767121
H70	H	0.416750	0.494772	0.831093
H71	H	0.289999	0.402650	0.607027
H72	H	0.205767	0.460814	0.723987
H73	H	0.296464	0.361155	0.771040
H74	H	0.091405	0.615263	0.986792
H75	H	1.036532	0.526322	0.874660
H76	H	0.202786	0.463502	0.080083
H77	H	0.229833	0.496391	0.922302
H78	H	0.085867	0.304332	-0.015040
H79	H	0.227085	0.298265	0.965056
H80	H	0.141078	0.337036	0.835700
N1	N	0.312320	0.846223	0.732945
N2	N	0.043516	0.156476	0.179556
N3	N	0.168968	0.671543	0.685385
N4	N	0.454595	0.352460	0.247082
N5	N	0.794125	0.879645	0.701205
N6	N	0.568247	0.152185	0.223966
N7	N	0.696239	0.671184	0.701743
N8	N	0.936167	0.374545	0.230779
Ni1	Ni	0.243139	0.737721	0.837786
Ni2	Ni	0.505051	0.236597	0.363803
Ni3	Ni	0.756220	0.770360	0.836216
Ni4	Ni	0.000435	0.251851	0.323849
O1	O	0.127061	0.363370	0.366434
O2	O	0.478487	0.686396	0.971660
O3	O	0.366230	0.152635	0.407709
O4	O	0.033921	0.879394	0.829292
O5	O	0.504482	0.347295	0.525892
O6	O	0.303531	0.653833	0.978531
O7	O	0.015549	0.129347	0.442318
O8	O	0.154283	0.807872	0.962827
O9	O	0.639520	0.352667	0.398873
O10	O	0.895936	0.690661	0.907309
O11	O	0.860025	0.175185	0.365106
O12	O	0.627001	0.864685	0.878855
O13	O	1.004963	0.341180	0.509970
O14	O	0.740318	0.665153	0.986259
O15	O	0.522980	0.114338	0.486175
O16	O	0.777474	0.875683	0.984105
