data_NiPyC2_relax_sc211_ortho_functionalized_O-CH2-CH3_lammps_PM
_symmetry_space_group_name_H-M	'P1'
_cell_length_a	16.002517
_cell_length_b	10.734744
_cell_length_c	9.829165
_cell_angle_alpha	90.000000
_cell_angle_beta	91.268998
_cell_angle_gamma	90.000000
_symmetry_Int_Tables_number 1

loop_
_symmetry_equiv_pos_as_xyz
'x,y,z'

loop_
_atom_site_label
_atom_site_type_symbol
_atom_site_fract_x
_atom_site_fract_y
_atom_site_fract_z
Ni1	Ni	0.155861	0.841582	0.892180
Ni2	Ni	0.405035	0.347726	0.406084
O1	O	0.002980	0.408088	0.393729
O2	O	0.239466	0.738468	0.896948
O3	O	0.327548	0.234270	0.405520
O4	O	0.073771	0.943860	0.907337
O5	O	0.369225	0.452265	0.538916
O6	O	0.122701	0.727040	1.012482
O7	O	-0.071269	0.227147	0.534494
O8	O	0.187759	0.933790	0.036521
N1	N	0.211840	0.959455	0.769294
N2	N	-0.044178	0.188947	0.272356
N3	N	0.098668	0.747470	0.744403
N4	N	0.345209	0.446106	0.273639
C1	C	0.252507	1.020937	0.543290
C2	C	0.003678	0.147313	0.048456
H1	H	0.242601	1.013634	0.434604
H2	H	0.474288	0.167403	0.946337
C3	C	0.319736	0.093086	0.596116
C4	C	0.074711	0.085841	0.100265
C5	C	0.325373	0.108320	0.734172
C6	C	0.085385	1.078489	0.240716
H3	H	0.842483	0.184234	0.782078
H4	H	0.135742	1.022875	0.283155
C7	C	0.089591	0.624823	0.536938
C8	C	0.337863	0.589598	0.085367
H5	H	0.115666	0.605784	0.439192
H6	H	0.871602	0.701176	0.085584
C9	C	0.137446	0.693843	0.636199
C10	C	0.384514	0.514136	0.176614
H7	H	0.203473	0.708902	0.621632
C11	C	0.194749	0.964532	0.632265
C12	C	-0.060238	0.183012	0.136333
H8	H	0.135748	0.931431	0.591748
H9	H	0.376823	0.260575	0.112593
C13	C	0.278785	1.031864	0.819679
C14	C	0.018381	0.112234	0.323726
C15	C	0.013889	0.722196	0.761088
C16	C	0.258641	0.460941	0.291112
C17	C	-0.029606	0.635035	0.677115
C18	C	0.213431	0.548306	0.210703
H10	H	0.393458	0.624905	0.755980
H11	H	0.146844	0.557036	0.222717
C19	C	0.007635	0.584676	0.564180
C20	C	0.251081	0.606577	0.101155
C21	C	0.367585	0.176963	0.504506
C22	C	0.115077	0.994434	1.010686
C23	C	-0.037665	0.486565	0.475315
C24	C	0.200294	0.676133	0.993070
Ni3	Ni	0.644338	0.852818	0.922153
Ni4	Ni	-0.090327	0.319963	0.383652
O9	O	0.483166	0.457220	0.420434
O10	O	0.735869	0.764275	0.917192
O11	O	0.804119	0.234748	0.396575
O12	O	0.555456	0.938178	0.949654
O13	O	0.868099	0.447297	0.491374
O14	O	0.626215	0.734215	0.047874
O15	O	0.438779	0.241804	0.539336
O16	O	0.678098	0.955738	0.056374
N5	N	0.680712	0.978915	0.787385
N6	N	0.466542	0.254506	0.275552
N7	N	0.590032	0.747184	0.789085
N8	N	0.855492	0.414229	0.224294
C25	C	0.709463	1.042605	0.558598
C26	C	0.492030	0.173074	0.052612
H12	H	0.694141	1.039335	0.451599
H13	H	-0.005308	0.158688	0.939499
C27	C	0.783515	0.106186	0.604183
C28	C	0.568185	0.121206	0.099562
C29	C	0.794860	0.121320	0.742623
C30	C	0.601159	0.165135	0.220511
H14	H	0.370334	0.173055	0.777809
H15	H	0.662459	0.134310	0.254108
C31	C	0.578111	0.612819	0.593559
C32	C	0.842087	0.617535	0.118563
H16	H	0.603667	0.587691	0.497217
H17	H	0.369295	0.634399	1.002731
C33	C	0.628218	0.682434	0.686627
C34	C	-0.093623	0.521747	0.175779
H18	H	0.451423	0.506305	0.165687
C35	C	0.651041	0.994230	0.655496
C36	C	0.439308	0.233964	0.144784
H19	H	0.866633	0.211346	0.094196
C37	C	0.738676	1.066304	0.831858
C38	C	0.549057	0.224724	0.312785
H20	H	0.739020	0.100933	0.934342
C39	C	0.508345	0.716869	0.818977
C40	C	0.774242	0.390124	0.181521
H21	H	0.483233	0.745500	0.914540
H22	H	0.749037	0.297778	0.189649
C41	C	0.458123	0.642441	0.732072
C42	C	0.722353	0.483785	0.126168
H23	H	-0.092301	0.606812	0.702915
H24	H	0.657699	0.462726	0.100330
C43	C	0.492475	0.590551	0.617548
C44	C	0.755439	0.599664	0.095175
C45	C	0.836695	0.180862	0.506797
C46	C	0.598288	0.999661	0.044407
C47	C	0.442714	0.513937	0.516449
C48	C	0.703787	0.693424	1.014619
O17	O	0.303607	1.027207	0.953874
C49	C	0.367895	0.939259	0.967655
C50	C	0.381979	0.906499	0.117134
H25	H	0.422776	0.980731	0.924129
H26	H	0.357756	0.852807	0.909076
H27	H	0.439175	0.848907	0.129772
H28	H	0.328054	0.853031	0.155208
H29	H	0.388604	0.991957	0.179330
O18	O	0.006918	1.046015	0.442375
C51	C	-0.043206	0.939678	0.414014
C52	C	0.006357	0.835787	0.346482
H30	H	-0.100419	0.961979	0.351780
H31	H	-0.065418	0.903562	0.512635
H32	H	-0.027111	0.746189	0.355419
H33	H	0.069677	0.829534	0.393467
H34	H	0.013634	0.853158	0.236958
O19	O	-0.024447	0.760297	0.877348
C53	C	-0.080774	0.857255	0.844755
C54	C	0.883666	0.922519	0.977008
H35	H	0.849590	0.820529	0.791422
H36	H	-0.053746	0.927939	0.774786
H37	H	0.872336	1.020453	0.956286
H38	H	-0.051548	0.913609	0.052639
H39	H	0.828389	0.887976	0.028092
O20	O	0.211935	0.369030	0.357677
C55	C	0.205617	0.386690	0.501700
C56	C	0.133570	0.312892	0.562058
H40	H	0.256562	0.343341	0.558648
H41	H	0.209380	0.484192	0.534089
H42	H	0.101611	0.257359	0.482947
H43	H	0.155871	0.245296	0.640754
H44	H	0.089928	0.374637	0.614994
O21	O	0.567165	1.026070	0.634507
C57	C	0.519126	0.932048	0.568611
C58	C	0.511287	0.944978	0.415079
H45	H	0.543631	0.840967	0.582894
H46	H	0.455867	0.931299	0.612292
H47	H	0.573368	0.953577	0.368930
H48	H	0.481545	0.859458	0.372773
H49	H	0.470282	1.023257	0.386823
O22	O	0.571677	0.215890	0.448919
C59	C	0.623813	0.313714	0.493719
C60	C	0.614423	0.334085	0.646568
H50	H	0.620348	0.399412	0.432077
H51	H	0.686802	0.285066	0.484444
H52	H	0.628517	0.247502	0.703381
H53	H	0.550115	0.361492	0.671790
H54	H	0.659432	0.405813	0.683408
O23	O	0.713838	0.688630	0.669377
C61	C	0.732229	0.757473	0.550383
C62	C	0.768888	0.676460	0.440721
H55	H	0.677604	0.805143	0.501520
H56	H	0.780045	0.827931	0.578273
H57	H	0.756525	0.720797	0.340437
H58	H	0.837205	0.672069	0.455672
H59	H	0.741258	0.581798	0.440069
O24	O	-0.008331	0.525206	0.151043
C63	C	0.012665	0.424565	0.065168
C64	C	0.072694	0.454802	0.953105
H60	H	-0.042478	0.384828	1.008530
H61	H	0.046440	0.357740	0.131742
H62	H	0.138237	0.445983	0.989113
H63	H	0.058900	0.546516	0.911739
H64	H	0.064731	0.386621	0.868729
