data_NiPyC2_relax_sc211_meta_functionalized_O-CH2-CH3_lammps_PM
_symmetry_space_group_name_H-M	'P1'
_cell_length_a	13.542407
_cell_length_b	10.593633
_cell_length_c	11.029281
_cell_angle_alpha	90.000000
_cell_angle_beta	91.268998
_cell_angle_gamma	90.000000
_symmetry_Int_Tables_number 1

loop_
_symmetry_equiv_pos_as_xyz
'x,y,z'

loop_
_atom_site_label
_atom_site_type_symbol
_atom_site_fract_x
_atom_site_fract_y
_atom_site_fract_z
Ni1	Ni	0.212486	0.862003	0.813665
Ni2	Ni	0.460852	0.335786	0.299647
O1	O	0.071636	0.438787	0.345954
O2	O	0.321732	0.766559	0.819378
O3	O	0.351355	0.242452	0.310561
O4	O	0.104957	0.954753	0.837017
O5	O	0.426794	0.444087	0.409070
O6	O	0.182881	0.745217	0.921564
O7	O	-0.000281	0.238205	0.455858
O8	O	0.249286	0.961842	0.935785
N1	N	0.261856	0.980834	0.695433
N2	N	0.020288	0.221300	0.221219
N3	N	0.153764	0.761491	0.684104
N4	N	0.407680	0.449058	0.176465
C1	C	0.251336	1.071049	0.493043
C2	C	0.002034	1.088059	0.044126
H1	H	0.211482	1.074796	0.407716
C3	C	0.350144	0.111506	0.501721
C4	C	0.105534	1.066735	0.041618
C5	C	0.399144	0.096601	0.613230
C6	C	0.162826	0.116817	0.137995
H2	H	-0.005385	1.069322	0.630347
H3	H	0.241529	0.101121	0.141842
C7	C	0.152928	0.669278	0.481986
C8	C	0.428858	0.600883	0.018112
C9	C	0.199901	0.740880	0.576385
C10	C	0.460453	0.547762	0.130311
H4	H	0.272563	0.779670	0.562528
H5	H	0.040676	0.427618	0.101361
C11	C	0.205897	1.016450	0.595495
C12	C	0.943079	0.155625	0.141875
H6	H	0.131063	0.984110	0.586065
H7	H	0.407167	1.078572	0.189045
C13	C	0.360762	1.009682	0.697197
C14	C	0.119488	0.197733	0.224087
H8	H	0.410062	0.963720	0.760741
H9	H	0.165257	0.241467	0.293085
C15	C	0.055449	0.733145	0.690819
C16	C	0.307760	0.447921	0.152240
H10	H	0.016362	0.757070	0.771623
H11	H	0.259475	0.394278	0.208055
C17	C	0.007610	0.658143	0.601877
C18	C	0.265010	0.530532	0.065874
H12	H	0.185896	0.540910	0.061242
C19	C	0.059024	0.616231	0.500915
C20	C	0.324783	0.605737	-0.006930
C21	C	0.400661	0.180076	0.399608
C22	C	0.155596	1.007369	0.931205
C23	C	0.018086	0.508005	0.424170
C24	C	0.274909	0.698951	0.904880
Ni3	Ni	0.704901	0.822680	0.811395
Ni4	Ni	0.947169	0.339741	0.334260
O9	O	0.569853	0.428230	0.318417
O10	O	0.813651	0.729767	0.829428
O11	O	0.840380	0.244622	0.347049
O12	O	0.595690	0.915408	0.820119
O13	O	0.909751	0.456266	0.439755
O14	O	0.671865	0.715236	0.926171
O15	O	0.492748	0.227264	0.412303
O16	O	0.737012	0.934814	0.926280
N5	N	0.758651	0.930317	0.688888
N6	N	0.515958	0.223751	0.179992
N7	N	0.653198	0.711124	0.688810
N8	N	0.895328	0.440505	0.204259
C25	C	0.755475	1.028637	0.490272
C26	C	0.493688	1.062912	0.031039
C27	C	0.848780	1.083066	0.514744
C28	C	0.594131	1.072182	-0.005160
C29	C	0.901680	1.039615	0.615410
C30	C	0.650868	0.167349	0.049964
H13	H	0.726832	0.179303	0.027118
C31	C	0.665264	0.608025	0.494797
C32	C	0.905483	0.527843	0.001298
H14	H	0.705788	0.597455	0.413015
C33	C	0.709372	0.671788	0.594240
C34	C	0.948710	0.463429	0.103633
H15	H	0.783191	0.706957	0.586204
H16	H	0.536439	0.560976	0.157413
C35	C	0.711622	0.951081	0.579461
C36	C	0.472843	0.111332	0.146421
H17	H	0.640634	0.908209	0.560340
H18	H	0.864650	0.171694	0.141436
C37	C	0.856137	0.961889	0.700713
C38	C	0.607842	0.249059	0.134812
H19	H	0.898353	0.928685	0.777695
H20	H	0.647696	0.332161	0.161742
C39	C	0.553927	0.685586	0.685877
C40	C	0.803858	0.492088	0.214018
H21	H	0.506596	0.728156	0.751320
H22	H	0.757603	0.462319	0.286473
C41	C	0.514313	0.596626	0.603835
C42	C	0.768297	0.580294	0.128909
H23	H	0.919936	0.615412	0.622881
H24	H	0.698830	0.627004	0.144153
C43	C	0.566056	0.570162	0.499240
C44	C	0.816824	0.597071	0.019071
C45	C	0.890808	0.186561	0.437570
C46	C	0.643240	0.978654	0.909865
C47	C	0.518492	0.492122	0.400842
C48	C	0.764943	0.668771	0.916912
O17	O	0.463194	0.190588	0.652744
C49	C	0.561570	0.154108	0.635016
C50	C	0.626485	0.267711	0.606156
H25	H	0.567028	1.087984	0.558188
H26	H	0.590514	0.111974	0.719246
H27	H	0.648106	0.270015	0.509869
H28	H	0.695919	0.263204	0.659012
H29	H	0.588603	0.355992	0.628149
O18	O	0.927561	1.075693	0.940047
C51	C	0.936169	0.189181	0.873574
C52	C	0.836007	0.236804	0.829659
H30	H	0.002639	0.172129	0.796756
H31	H	-0.010994	0.267403	0.924956
H32	H	0.844888	0.288979	0.743524
H33	H	0.805632	0.302897	0.896963
H34	H	0.782731	0.158889	0.815777
O19	O	0.201165	0.647816	0.374911
C53	C	0.187286	0.751772	0.295424
C54	C	0.287255	0.809522	0.267506
H35	H	0.137759	0.828265	0.328863
H36	H	0.152991	0.716499	0.209581
H37	H	0.339623	0.735061	0.239861
H38	H	0.318328	0.857851	0.349013
H39	H	0.279008	0.878855	0.192638
O20	O	0.494832	0.595880	0.924194
C55	C	0.515176	0.466405	0.899338
C56	C	0.620473	0.439394	0.863968
H40	H	0.510235	0.403911	-0.021917
H41	H	0.461321	0.431255	0.832576
H42	H	0.669889	0.453352	0.943412
H43	H	0.626341	0.337943	0.841462
H44	H	0.645154	0.494496	0.786077
O21	O	0.705404	1.053369	0.382469
C57	C	0.724674	0.956914	0.297173
C58	C	0.631974	0.877758	0.275172
H45	H	0.788087	0.893293	0.321334
H46	H	0.744444	1.002649	0.210690
H47	H	0.564778	0.936661	0.281617
H48	H	0.627581	0.802669	0.344329
H49	H	0.633325	0.833872	0.183862
O22	O	0.418105	1.072427	0.944672
C59	C	0.401134	0.203146	0.921038
C60	C	0.297063	0.239345	0.880349
H50	H	0.407895	0.262819	0.002376
H51	H	0.455221	0.233576	0.855260
H52	H	0.244873	0.222776	0.953134
H53	H	0.295320	0.343014	0.867866
H54	H	0.271620	0.194913	0.795449
O23	O	0.449307	0.507314	0.645033
C61	C	0.351505	0.539427	0.615535
C62	C	0.291145	0.419823	0.596450
H55	H	0.320318	0.589564	0.692501
H56	H	0.345607	0.596399	0.531167
H57	H	0.337577	0.343534	0.564115
H58	H	0.261699	0.387301	0.682284
H59	H	0.229859	0.434299	0.529756
O24	O	0.927166	0.488305	0.884551
C63	C	0.047989	0.486438	0.863632
C64	C	0.068139	0.424452	0.742212
H60	H	0.091448	0.429453	0.929055
H61	H	0.077366	0.582051	0.867567
H62	H	-0.000200	0.411428	0.686461
H63	H	0.104222	0.331277	0.754494
H64	H	0.120313	0.483870	0.693417
