data_NiPyC2_relax_sc211_ortho_functionalized_O-CH2-CH2-CH3_lammps_PM
_symmetry_space_group_name_H-M	'P1'
_cell_length_a	12.505600
_cell_length_b	12.523400
_cell_length_c	10.276800
_cell_angle_alpha	90.000000
_cell_angle_beta	91.268998
_cell_angle_gamma	90.000000
_symmetry_Int_Tables_number 1

loop_
_symmetry_equiv_pos_as_xyz
'x,y,z'

loop_
_atom_site_label
_atom_site_type_symbol
_atom_site_fract_x
_atom_site_fract_y
_atom_site_fract_z
Ni1	Ni	0.251804	0.748500	0.923380
Ni2	Ni	0.494332	0.222809	0.390416
O1	O	0.097026	0.368005	0.410807
O2	O	0.356657	0.648398	0.934963
O3	O	0.378228	0.137951	0.420455
O4	O	0.145707	0.849130	0.929135
O5	O	0.468507	0.316223	0.520122
O6	O	0.219087	0.662107	0.058495
O7	O	0.032014	0.175606	0.501490
O8	O	0.291217	0.850943	0.044857
N1	N	0.321063	0.832561	0.788748
N2	N	0.062824	0.182398	0.233555
N3	N	0.180666	0.650701	0.799235
N4	N	0.429649	0.328299	0.265268
C1	C	0.317767	0.922433	0.574980
C2	C	0.088422	0.077640	0.027311
H1	H	0.284500	0.924869	0.477131
H2	H	0.585004	0.083365	0.917166
C3	C	0.403124	0.990290	0.608411
C4	C	0.171675	0.017570	0.079950
C5	C	0.458112	0.965129	0.729402
C6	C	0.206634	0.047327	0.206668
H3	H	0.026608	0.022459	0.715484
H4	H	0.259157	0.994858	0.260310
C7	C	0.200865	0.514555	0.625867
C8	C	0.444674	0.452978	0.081111
H5	H	0.250864	0.484315	0.550657
H6	H	0.946083	0.481993	0.951400
C9	C	0.242540	0.596566	0.710313
C10	C	0.485840	0.364789	0.158640
H7	H	0.324323	0.620839	0.698781
C11	C	0.280505	0.842655	0.663669
C12	C	0.038055	0.164375	0.096950
H8	H	0.227925	0.783324	0.626525
C13	C	0.415190	0.886221	0.822581
C14	C	0.152812	0.128535	0.279610
H9	H	0.182097	0.144122	0.376076
C15	C	0.078085	0.612883	0.822923
C16	C	0.354015	0.397797	0.314368
H10	H	0.315282	0.378220	0.402234
C17	C	0.035500	0.523126	0.740430
C18	C	0.328743	0.497751	0.253755
H11	H	0.445780	0.539853	0.577566
H12	H	0.274389	0.552047	0.300596
C19	C	0.094892	0.478006	0.633417
C20	C	0.363027	0.519422	0.127138
C21	C	0.441094	0.083513	0.511033
C22	C	0.204680	0.907437	0.014548
C23	C	0.041374	0.409648	0.512998
C24	C	0.307997	0.603925	0.035058
Ni3	Ni	0.724867	0.742162	0.839284
Ni4	Ni	0.987566	0.273881	0.380512
O9	O	0.611746	0.304908	0.397689
O10	O	0.825298	0.642845	0.862725
O11	O	0.878651	0.177093	0.390872
O12	O	0.620056	0.841872	0.845276
O13	O	0.945049	0.358748	0.514965
O14	O	0.664306	0.634538	0.937332
O15	O	0.540098	0.127075	0.512783
O16	O	0.749570	0.811313	0.981830
N5	N	0.806297	0.857347	0.738539
N6	N	0.540002	0.119813	0.241214
N7	N	0.678940	0.664253	0.676207
N8	N	0.915573	0.377726	0.250406
C25	C	0.794650	0.980676	0.549011
C26	C	0.574169	0.058502	0.014567
H13	H	0.753632	0.001174	0.460251
H14	H	0.061037	0.058521	0.930202
C27	C	0.891901	0.031165	0.578047
C28	C	0.634683	0.971949	0.054614
C29	C	0.947082	0.993061	0.693044
C30	C	0.659820	0.970863	0.189332
H15	H	0.533417	0.003361	0.749222
H16	H	0.708675	0.910432	0.229749
C31	C	0.709562	0.494846	0.561101
C32	C	0.905818	0.458586	0.033834
H17	H	0.766279	0.432892	0.544497
H18	H	0.481326	0.473276	0.990172
C33	C	0.747852	0.592763	0.612552
C34	C	0.965406	0.409507	0.141419
C35	C	0.751224	0.898989	0.630954
C36	C	0.511828	0.122353	0.105756
H19	H	0.674508	0.865324	0.603150
C37	C	0.898113	0.917163	0.782301
C38	C	0.602045	0.033617	0.279029
H20	H	0.597422	0.002933	0.375570
C39	C	0.570531	0.646679	0.655992
C40	C	0.813543	0.417760	0.267762
H21	H	0.513894	0.701369	0.697411
H22	H	0.770291	0.391303	0.348653
C41	C	0.530689	0.551158	0.591896
C42	C	0.758721	0.483701	0.169412
H23	H	0.956604	0.494316	0.754439
H24	H	0.683114	0.518842	0.191048
C43	C	0.601679	0.472018	0.547633
C44	C	0.802902	0.498849	0.044689
C45	C	0.937606	0.123038	0.483444
C46	C	0.672367	0.879801	0.954892
C47	C	0.564161	0.360442	0.495294
C48	C	0.758250	0.580841	0.933810
O17	O	0.455292	0.885758	0.957120
C49	C	0.483946	0.784273	0.024433
C50	C	0.541786	0.780197	0.161197
H25	H	0.419265	0.753559	0.073701
H26	H	0.514951	0.725254	0.957764
C51	C	0.522503	0.684673	0.250720
H27	H	0.626745	0.772503	0.147656
H28	H	0.516707	0.846623	0.222472
H29	H	0.539574	0.610769	0.198414
H30	H	0.577838	0.688979	0.336818
H31	H	0.439633	0.685363	0.286822
O18	O	0.956878	0.218929	0.030031
C52	C	0.985177	0.249792	0.899976
C53	C	0.903990	0.209711	0.798050
H32	H	0.993349	0.334723	0.887225
H33	H	0.066533	0.226039	0.871066
C54	C	0.819476	0.287182	0.741388
H34	H	0.864167	0.136971	0.834081
H35	H	0.954947	0.192138	0.716116
H36	H	0.737191	0.269006	0.769880
H37	H	0.812634	0.274886	0.635250
H38	H	0.836565	0.371391	0.764724
O19	O	0.006130	0.674752	0.903263
C55	C	0.018632	0.678495	0.046461
C56	C	0.923178	0.669872	0.145435
H39	H	0.059581	0.608685	0.075099
H40	H	0.061164	0.748760	0.075242
C57	C	0.846304	0.723916	0.242687
H41	H	0.865807	0.673668	0.072681
H42	H	0.939835	0.598083	0.204312
H43	H	0.789819	0.775343	0.194800
H44	H	0.795758	0.662854	0.289528
H45	H	0.875629	0.769674	0.324980
O20	O	0.592357	0.338839	0.150652
C58	C	0.624936	0.320005	0.022079
C59	C	0.725092	0.251093	0.021150
H46	H	0.565871	0.282927	0.958976
H47	H	0.640085	0.395879	0.971176
C60	C	0.759077	0.196044	0.146787
H48	H	0.717328	0.189165	0.946330
H49	H	0.789857	0.301160	0.989919
H50	H	0.779594	0.113460	0.126556
H51	H	0.833818	0.225601	0.181867
H52	H	0.707400	0.206482	0.229705
O21	O	0.956450	0.892920	0.899747
C61	C	0.907681	0.929492	0.016679
C62	C	0.941385	0.952864	0.162959
H53	H	0.897494	0.851023	0.051837
H54	H	0.840298	0.984086	0.994435
C63	C	0.032257	0.898989	0.240907
H55	H	0.872800	0.933021	0.223149
H56	H	0.932244	0.035516	0.190117
H57	H	0.015954	0.820600	0.274188
H58	H	0.052957	0.950692	0.324401
H59	H	0.103796	0.872918	0.197574
O22	O	0.407747	0.148555	0.065972
C64	C	0.397657	0.187037	0.933483
C65	C	0.297053	0.146015	0.864877
H60	H	0.460423	0.168394	0.865099
H61	H	0.396107	0.274772	0.933261
C66	C	0.277272	0.197113	0.733004
H62	H	0.229098	0.168166	0.920120
H63	H	0.298313	0.058449	0.856638
H64	H	0.353077	0.215580	0.684335
H65	H	0.228433	0.141745	0.671962
H66	H	0.232101	0.273007	0.742983
O23	O	0.857644	0.601393	0.621528
C67	C	0.895606	0.700286	0.583876
C68	C	0.000762	0.699062	0.512389
H67	H	0.921296	0.734252	0.676879
H68	H	0.836630	0.746564	0.525313
C69	C	0.045423	0.810722	0.515815
H69	H	0.994565	0.664276	0.414013
H70	H	0.062202	0.655631	0.562530
H71	H	0.983398	0.866410	0.481019
H72	H	0.118594	0.814930	0.457465
H73	H	0.065169	0.833823	0.617362
O24	O	0.061470	0.365632	0.120034
C70	C	0.134371	0.431899	0.065876
C71	C	0.219437	0.362907	0.026129
H74	H	0.108160	0.467580	0.975222
H75	H	0.158549	0.488196	0.141529
C72	C	0.252356	0.280921	0.112791
H76	H	0.258382	0.376228	0.934490
H77	H	0.232544	0.266438	0.512351
H78	H	0.404870	0.963325	0.180483
H79	H	0.254297	0.753850	0.305949
H80	H	0.132257	0.012273	0.530855
