data_NiPyC2_relax_sc211_meta_functionalized_CH2-NH2_lammps_PM
_symmetry_space_group_name_H-M	'P1'
_cell_length_a	12.505600
_cell_length_b	12.523400
_cell_length_c	10.276800
_cell_angle_alpha	90.000000
_cell_angle_beta	91.268998
_cell_angle_gamma	90.000000
_symmetry_Int_Tables_number 1

loop_
_symmetry_equiv_pos_as_xyz
'x,y,z'

loop_
_atom_site_label
_atom_site_type_symbol
_atom_site_fract_x
_atom_site_fract_y
_atom_site_fract_z
Ni1	Ni	0.239273	0.741411	0.858771
Ni2	Ni	0.486922	0.226582	0.348679
O1	O	0.097908	0.331525	0.345962
O2	O	0.360640	0.663666	0.887535
O3	O	0.368962	0.142425	0.363399
O4	O	0.118253	0.819610	0.869582
O5	O	0.455905	0.319372	0.473418
O6	O	0.209291	0.653843	0.991486
O7	O	0.017789	0.159238	0.458886
O8	O	0.270082	0.844930	0.979689
N1	N	0.296526	0.833416	0.717256
N2	N	0.032223	0.144628	0.206077
N3	N	0.182422	0.633545	0.722188
N4	N	0.424894	0.327115	0.220842
C1	C	0.290620	0.922234	0.500583
C2	C	0.002966	0.004138	0.051483
C3	C	0.382877	0.985284	0.534636
C4	C	0.116230	0.981674	0.037355
C5	C	0.440749	0.949550	0.643761
C6	C	0.183884	0.059537	0.096370
H1	H	0.269315	0.054830	0.084723
C7	C	0.200734	0.523224	0.522317
C8	C	0.461503	0.473604	0.072342
H2	H	0.249133	0.502102	0.441129
C9	C	0.242594	0.599940	0.618009
C10	C	0.488675	0.373349	0.132896
H3	H	0.322621	0.630964	0.607063
H4	H	0.035037	0.321031	0.074183
C11	C	0.248712	0.845561	0.594960
C12	C	0.975622	0.055261	0.168904
H5	H	0.173044	0.806650	0.574674
H6	H	0.423976	0.160707	0.064597
C13	C	0.393570	0.882093	0.738981
C14	C	0.138940	0.145457	0.172033
H7	H	0.435313	0.868981	0.830356
H8	H	0.191319	0.206713	0.209127
C15	C	0.075712	0.603105	0.717342
C16	C	0.327899	0.374482	0.243931
H9	H	0.017679	0.655701	0.755778
H10	H	0.283444	0.347295	0.325637
C17	C	0.039972	0.509884	0.643771
C18	C	0.291360	0.467949	0.173471
H11	H	0.220102	0.507115	0.204936
C19	C	0.098620	0.474473	0.536725
C20	C	0.355812	0.517819	0.079527
C21	C	0.426167	0.084024	0.452910
C22	C	0.166450	0.878755	0.965659
C23	C	0.046490	0.388554	0.438074
C24	C	0.310773	0.616040	0.989899
Ni3	Ni	0.744068	0.752617	0.838244
Ni4	Ni	0.977840	0.247629	0.336479
O9	O	0.606594	0.310373	0.365206
O10	O	0.862373	0.671109	0.867719
O11	O	0.859049	0.168193	0.359968
O12	O	0.626451	0.835476	0.845157
O13	O	0.948230	0.344082	0.453792
O14	O	0.710596	0.668116	0.972221
O15	O	0.525322	0.128596	0.470130
O16	O	0.779730	0.853474	0.955530
N5	N	0.803817	0.843709	0.695624
N6	N	0.542234	0.130794	0.211703
N7	N	0.681181	0.643974	0.705361
N8	N	0.913065	0.339721	0.205284
C25	C	0.769324	0.984757	0.535653
C26	C	0.547214	0.051917	0.993987
H12	H	0.708623	0.032838	0.491430
C27	C	0.876850	0.020743	0.538816
C28	C	0.625641	0.974400	0.033883
C29	C	0.947260	0.969721	0.628114
C30	C	0.666998	0.986881	0.161245
H13	H	0.523396	0.970008	0.652822
H14	H	0.732865	0.937325	0.195006
C31	C	0.693918	0.526568	0.511297
C32	C	0.950457	0.470890	0.042754
H15	H	0.736879	0.507912	0.426049
C33	C	0.734393	0.612741	0.595249
C34	C	0.966296	0.367930	0.099331
H16	H	0.809580	0.650327	0.572589
H17	H	0.567705	0.340161	0.121372
C35	C	0.736653	0.892521	0.606957
C36	C	0.493669	0.114206	0.092180
H18	H	0.656022	0.863232	0.594042
H19	H	0.897344	0.040747	0.206191
C37	C	0.911125	0.874443	0.697144
C38	C	0.634418	0.075159	0.238790
H20	H	0.964775	0.833536	0.760080
H21	H	0.685957	0.103149	0.314471
C39	C	0.578106	0.602816	0.716790
C40	C	0.821598	0.394961	0.233206
H22	H	0.519157	0.650308	0.763523
H23	H	0.776930	0.370343	0.315216
C41	C	0.544882	0.503563	0.650944
C42	C	0.792724	0.491939	0.166385
H24	H	0.732118	0.542171	0.206341
C43	C	0.600376	0.466571	0.542054
C44	C	0.853125	0.529248	0.061664
C45	C	0.916950	0.117463	0.453503
C46	C	0.679967	0.894661	0.936714
C47	C	0.554485	0.365569	0.458330
C48	C	0.811298	0.627324	0.971128
C49	C	0.241244	0.930306	0.365687
N9	N	0.176136	0.836602	0.332844
H25	H	0.306150	0.937900	0.293906
H26	H	0.191391	0.003354	0.360566
H27	H	0.184167	0.817086	0.234720
H28	H	0.095712	0.852029	0.351731
C50	C	0.938667	0.047820	0.935385
N10	N	0.861874	0.131445	0.969517
H29	H	0.895760	0.983814	0.887625
H30	H	0.990636	0.087880	0.868620
H31	H	0.792560	0.097649	0.004976
H32	H	0.842123	0.177861	0.887786
C51	C	0.939236	0.447556	0.673155
N11	N	0.887181	0.467317	0.793201
H33	H	0.962134	0.361376	0.674711
H34	H	0.881263	0.463297	0.593281
H35	H	0.872369	0.393386	0.836992
H36	H	0.811238	0.495852	0.772302
C52	C	0.550496	0.534859	0.020362
N12	N	0.624818	0.461815	0.956123
H37	H	0.524771	0.599360	0.957020
H38	H	0.588516	0.574017	0.105234
H39	H	0.583789	0.408056	0.897510
H40	H	0.674546	0.499390	0.892942
C53	C	0.058440	0.022233	0.645144
N13	N	0.133918	0.995720	0.748302
H41	H	0.098749	0.009988	0.551695
H42	H	0.042788	0.108462	0.661659
H43	H	0.209492	0.010229	0.712273
H44	H	0.140051	0.057440	0.815660
C54	C	0.550130	0.096769	0.859071
N14	N	0.586030	0.206870	0.863561
H45	H	0.468092	0.094180	0.815922
H46	H	0.607391	0.052155	0.799275
H47	H	0.519577	0.253067	0.885860
H48	H	0.614267	0.229321	0.772473
C55	C	0.448368	0.438082	0.688991
N15	N	0.401053	0.461560	0.811371
H49	H	0.386831	0.445974	0.610809
H50	H	0.474332	0.353205	0.693925
H51	H	0.390626	0.389540	0.861225
H52	H	0.323798	0.486778	0.792695
C56	C	0.046785	0.524968	0.004102
N16	N	0.118474	0.449308	0.939227
H53	H	0.028816	0.596346	0.947770
H54	H	0.082870	0.552864	0.096679
H55	H	0.077913	0.397666	0.875425
H56	H	0.177218	0.486693	0.888148
