data_NiPyC2_relax_sc211_meta_functionalized_N-2CH3_lammps_PM
_symmetry_space_group_name_H-M	'P1'
_cell_length_a	12.505600
_cell_length_b	12.523400
_cell_length_c	10.276800
_cell_angle_alpha	90.000000
_cell_angle_beta	91.268998
_cell_angle_gamma	90.000000
_symmetry_Int_Tables_number 1

loop_
_symmetry_equiv_pos_as_xyz
'x,y,z'

loop_
_atom_site_label
_atom_site_type_symbol
_atom_site_fract_x
_atom_site_fract_y
_atom_site_fract_z
Ni1	Ni	0.246404	0.794182	0.815769
Ni2	Ni	0.485582	0.268102	0.268242
O1	O	0.120771	0.340018	0.366611
O2	O	0.369840	0.715868	0.821406
O3	O	0.364113	0.188647	0.279697
O4	O	0.128352	0.871680	0.845744
O5	O	0.451095	0.366458	0.388089
O6	O	0.232406	0.710450	0.953670
O7	O	0.045950	0.151774	0.470208
O8	O	0.294428	0.898446	0.922137
N1	N	0.279826	0.887970	0.661384
N2	N	0.063105	0.161869	0.209719
N3	N	0.176237	0.679258	0.701425
N4	N	0.434619	0.366448	0.126963
C1	C	0.386872	0.930650	0.471774
C2	C	0.056284	0.082296	0.991563
H1	H	0.482327	0.004283	0.875305
C3	C	0.358409	0.042718	0.470847
C4	C	0.153274	0.026822	0.014861
C5	C	0.277683	0.068800	0.560283
C6	C	0.209748	0.053250	0.129192
H2	H	0.029676	0.898071	0.523525
H3	H	0.289882	0.022949	0.145058
C7	C	0.182441	0.489772	0.646034
C8	C	0.469594	0.513797	0.973830
C9	C	0.178056	0.573781	0.740946
C10	C	0.503017	0.418132	0.043908
H4	H	0.184938	0.553841	0.841580
H5	H	0.086297	0.370352	0.103265
C11	C	0.368593	0.869828	0.589723
C12	C	0.008506	0.142857	0.095380
H6	H	0.419562	0.802993	0.614247
H7	H	0.408253	0.153377	0.011819
C13	C	0.230512	0.986889	0.641372
C14	C	0.160095	0.113984	0.228842
H8	H	0.155229	0.004328	0.685759
H9	H	0.196562	0.117461	0.323427
C15	C	0.132750	0.695301	0.578062
C16	C	0.331090	0.403145	0.128715
H10	H	0.138020	0.772160	0.533803
H11	H	0.272619	0.358476	0.182030
C17	C	0.086482	0.605807	0.502968
C18	C	0.306915	0.511938	0.091990
H12	H	0.578296	0.378630	0.649509
C19	C	0.109100	0.496891	0.540678
C20	C	0.368301	0.560488	0.994756
C21	C	0.413125	0.132540	0.378489
C22	C	0.192500	0.934626	0.923885
C23	C	0.067371	0.391984	0.462119
C24	C	0.330548	0.669643	0.931997
Ni3	Ni	0.738207	0.734372	0.822810
Ni4	Ni	0.004959	0.251617	0.348139
O9	O	0.606432	0.346666	0.291323
O10	O	0.859648	0.655593	0.848966
O11	O	0.890979	0.162854	0.361280
O12	O	0.614981	0.814348	0.832087
O13	O	0.970733	0.342496	0.477572
O14	O	0.704044	0.639325	0.948022
O15	O	0.511899	0.175567	0.398044
O16	O	0.765462	0.829823	0.947913
N5	N	0.798608	0.837512	0.688070
N6	N	0.545191	0.164397	0.138836
N7	N	0.685682	0.630495	0.683412
N8	N	0.939528	0.350648	0.214679
C25	C	0.793349	0.011798	0.577341
C26	C	0.528101	0.032816	0.958859
C27	C	0.899185	0.008819	0.536718
C28	C	0.625456	0.980301	0.996167
C29	C	0.951495	0.909809	0.561593
C30	C	0.676317	0.021254	0.112750
H13	H	0.244856	0.148426	0.560751
C31	C	0.665748	0.576337	0.454742
C32	C	0.951121	0.450275	0.001952
H14	H	0.523864	0.553303	0.910796
C33	C	0.674007	0.658641	0.554451
C34	C	0.002166	0.389370	0.105700
H15	H	0.689322	0.739527	0.525942
H16	H	0.581441	0.385330	0.028096
C35	C	0.756631	0.938850	0.675065
C36	C	0.486331	0.120947	0.036090
H17	H	0.683227	0.959045	0.720500
H18	H	0.925964	0.167538	0.086727
C37	C	0.897045	0.822109	0.629997
C38	C	0.646567	0.124802	0.160211
H19	H	0.937924	0.747299	0.644153
H20	H	0.694586	0.158732	0.238613
C39	C	0.654842	0.526660	0.714593
C40	C	0.826523	0.370347	0.209455
H21	H	0.666633	0.495950	0.811135
H22	H	0.899198	0.350075	0.250493
C41	C	0.609721	0.454875	0.618890
C42	C	0.788647	0.456497	0.126667
H23	H	0.046952	0.622754	0.411250
H24	H	0.707099	0.482824	0.136081
C43	C	0.608014	0.481713	0.485894
C44	C	0.851896	0.503509	0.028012
C45	C	0.948184	0.103955	0.450428
C46	C	0.665827	0.870970	0.929841
C47	C	0.552791	0.405839	0.379862
C48	C	0.806050	0.600854	0.942526
N9	N	0.387844	0.872710	0.349950
C49	C	0.277205	0.851797	0.303823
H25	H	0.223895	0.920493	0.320728
H26	H	0.276299	0.832066	0.198462
H27	H	0.239920	0.785567	0.356618
C50	C	0.444479	0.769667	0.364662
H28	H	0.401075	0.713647	0.426710
H29	H	0.457428	0.732351	0.268271
H30	H	0.520944	0.780054	0.417860
N10	N	0.992382	0.051299	0.881532
C51	C	0.933081	0.138581	0.816513
H31	H	0.907956	0.202056	0.883305
H32	H	0.981536	0.171289	0.736843
H33	H	0.856619	0.110999	0.774765
C52	C	0.923456	0.966399	0.924748
H34	H	0.959814	0.916476	0.003735
H35	H	0.846348	0.999760	0.956462
H36	H	0.916176	0.910216	0.845959
N11	N	0.285144	0.442640	0.621272
C53	C	0.370611	0.523922	0.618824
H37	H	0.342023	0.606327	0.601322
H38	H	0.418077	0.509584	0.534306
H39	H	0.420999	0.524122	0.708724
C54	C	0.312354	0.353791	0.708758
H40	H	0.320393	0.380745	0.811455
H41	H	0.389102	0.317349	0.679375
H42	H	0.251045	0.290439	0.700461
N12	N	0.256976	0.581547	0.184817
C55	C	0.292164	0.556910	0.318024
H43	H	0.262672	0.478327	0.350203
H44	H	0.380687	0.556382	0.323860
H45	H	0.262404	0.616850	0.385298
C56	C	0.140580	0.591283	0.170535
H46	H	0.113576	0.583516	0.067589
H47	H	0.099913	0.531900	0.231357
H48	H	0.115657	0.671700	0.203967
N13	N	0.717268	0.073180	0.504677
C57	C	0.702422	0.178141	0.566977
H49	H	0.679644	0.237676	0.492310
H50	H	0.642175	0.175470	0.644911
H51	H	0.778677	0.209578	0.609240
C58	C	0.618587	0.010157	0.485055
H52	H	0.558553	0.031334	0.558560
H53	H	0.590333	0.017173	0.384115
H54	H	0.629876	0.922816	0.493227
N14	N	0.714817	0.947514	0.209501
C59	C	0.828744	0.922010	0.216363
H55	H	0.877367	0.991927	0.189814
H56	H	0.848294	0.850943	0.157839
H57	H	0.850689	0.902319	0.318000
C60	C	0.641815	0.859080	0.229120
H58	H	0.558974	0.889766	0.226785
H59	H	0.660267	0.822772	0.323484
H60	H	0.645615	0.798992	0.151820
N15	N	0.756455	0.561938	0.373294
C61	C	0.786289	0.655441	0.297269
H61	H	0.800366	0.726058	0.359813
H62	H	0.725238	0.665662	0.220197
H63	H	0.862578	0.642161	0.246316
C62	C	0.846950	0.527405	0.453955
H64	H	0.913394	0.510520	0.389034
H65	H	0.825060	0.454275	0.507816
H66	H	0.872260	0.589665	0.525217
N16	N	0.984302	0.435163	0.867738
C63	C	0.073959	0.358879	0.855012
H67	H	0.061072	0.284141	0.907449
H68	H	0.148717	0.392512	0.896867
H69	H	0.085712	0.335842	0.752689
C64	C	0.893453	0.405019	0.780631
H70	H	0.827545	0.365016	0.832834
H71	H	0.915990	0.350212	0.701712
H72	H	0.862907	0.477437	0.731867
