data_NiPyC2_relax_sc211_ortho_functionalized_O-CH2-CH3_lammps_PM
_symmetry_space_group_name_H-M	'P1'
_cell_length_a	12.505600
_cell_length_b	12.523400
_cell_length_c	10.276800
_cell_angle_alpha	90.000000
_cell_angle_beta	91.268998
_cell_angle_gamma	90.000000
_symmetry_Int_Tables_number 1

loop_
_symmetry_equiv_pos_as_xyz
'x,y,z'

loop_
_atom_site_label
_atom_site_type_symbol
_atom_site_fract_x
_atom_site_fract_y
_atom_site_fract_z
Ni1	Ni	0.255109	0.744983	0.868578
Ni2	Ni	0.511671	0.247315	0.379307
O1	O	0.082629	0.368453	0.358242
O2	O	0.357100	0.638513	0.882377
O3	O	0.404218	0.149996	0.396866
O4	O	0.154246	0.851989	0.876313
O5	O	0.480699	0.338833	0.505702
O6	O	0.214750	0.649954	0.996712
O7	O	0.016273	0.185971	0.467944
O8	O	0.294075	0.835931	0.004218
N1	N	0.332842	0.836051	0.739846
N2	N	0.073507	0.165069	0.220023
N3	N	0.176485	0.657406	0.730552
N4	N	0.437513	0.340487	0.248382
C1	C	0.349737	0.920389	0.523769
C2	C	0.074189	0.051981	0.023344
H1	H	0.320891	0.925124	0.424658
H2	H	0.551659	0.071089	0.932552
C3	C	0.427489	0.994347	0.569531
C4	C	0.160519	0.988957	0.067666
C5	C	0.467510	0.976252	0.697144
C6	C	0.203326	0.014985	0.193259
H3	H	0.022788	0.046229	0.679035
H4	H	0.275112	0.974991	0.226903
C7	C	0.155794	0.577573	0.509913
C8	C	0.452273	0.460207	0.058939
H5	H	0.189098	0.570381	0.414469
H6	H	0.952177	0.446309	0.883324
C9	C	0.218970	0.630406	0.611512
C10	C	0.493541	0.378216	0.143483
H7	H	0.302035	0.647236	0.593563
C11	C	0.295151	0.851702	0.613278
C12	C	0.026924	0.131455	0.103788
H8	H	0.214747	0.827738	0.587001
H9	H	0.451748	0.161548	0.105961
C13	C	0.422907	0.895595	0.781349
C14	C	0.158838	0.101261	0.271664
C15	C	0.077164	0.613128	0.761126
C16	C	0.338448	0.388723	0.275697
C17	C	0.021655	0.539688	0.666564
C18	C	0.296853	0.473672	0.192014
H10	H	0.458231	0.529209	0.645747
H11	H	0.217915	0.505110	0.208991
C19	C	0.061470	0.519013	0.538500
C20	C	0.352719	0.509046	0.080460
C21	C	0.460539	0.098706	0.490793
C22	C	0.207732	0.897568	0.977412
C23	C	0.018888	0.421565	0.440400
C24	C	0.302905	0.591381	0.978599
Ni3	Ni	0.757734	0.765786	0.834784
Ni4	Ni	0.985478	0.263332	0.331690
O9	O	0.619450	0.345903	0.384056
O10	O	0.851329	0.658470	0.842658
O11	O	0.888216	0.155065	0.329833
O12	O	0.663020	0.876687	0.853935
O13	O	0.925598	0.363427	0.445351
O14	O	0.707004	0.673165	0.959338
O15	O	0.551145	0.151976	0.508489
O16	O	0.811101	0.854952	0.968308
N5	N	0.828713	0.855167	0.699743
N6	N	0.579078	0.155665	0.246853
N7	N	0.685168	0.677065	0.696994
N8	N	0.922784	0.342899	0.180005
C25	C	0.828202	0.941022	0.487127
C26	C	0.585751	0.072000	0.028861
H12	H	0.800856	0.932686	0.388708
H13	H	0.043264	0.041515	0.925586
C27	C	0.914188	0.010170	0.518346
C28	C	0.681083	0.013523	0.055768
C29	C	0.961619	0.992550	0.642937
C30	C	0.731256	0.039536	0.180325
H14	H	0.531877	0.026040	0.733043
H15	H	0.808649	0.005395	0.202306
C31	C	0.715553	0.518411	0.563176
C32	C	0.925278	0.448456	0.980487
H16	H	0.774111	0.457959	0.543320
H17	H	0.498825	0.484713	0.976526
C33	C	0.748531	0.621063	0.609398
C34	C	0.979407	0.382525	0.077235
H18	H	0.571799	0.346132	0.124851
C35	C	0.772822	0.885558	0.588518
C36	C	0.531408	0.132142	0.127792
H19	H	0.951004	0.164609	0.072388
C37	C	0.920395	0.913035	0.729757
C38	C	0.679050	0.111581	0.277659
H20	H	0.951919	0.912644	0.826974
C39	C	0.584442	0.633654	0.717428
C40	C	0.816714	0.373283	0.187587
H21	H	0.552310	0.634176	0.811629
H22	H	0.767323	0.333683	0.255234
C41	C	0.540002	0.554318	0.632804
C42	C	0.773013	0.461642	0.113788
H23	H	0.948253	0.501388	0.692808
H24	H	0.696329	0.494834	0.138702
C43	C	0.607733	0.491985	0.557393
C44	C	0.828924	0.503492	0.008753
C45	C	0.942691	0.114154	0.434186
C46	C	0.724082	0.920972	0.952186
C47	C	0.566734	0.395702	0.478519
C48	C	0.791167	0.607874	0.930747
O17	O	0.450577	0.903189	0.913984
C49	C	0.494633	0.808407	0.970926
C50	C	0.536465	0.823498	0.107517
H25	H	0.546799	0.765368	0.911774
H26	H	0.438981	0.750121	0.992128
H27	H	0.623978	0.814419	0.112945
H28	H	0.507515	0.758619	0.172460
H29	H	0.508132	0.900969	0.145278
O18	O	0.219595	0.135030	0.382128
C51	C	0.189867	0.090616	0.504936
C52	C	0.241028	0.101743	0.645780
H30	H	0.132687	0.023314	0.497395
H31	H	0.164674	0.165641	0.536194
H32	H	0.247236	0.025484	0.696163
H33	H	0.187130	0.138128	0.720372
H34	H	0.316612	0.146974	0.653045
O19	O	0.047950	0.607500	0.893847
C53	C	0.019971	0.704540	0.963014
C54	C	0.975152	0.684893	0.097397
H35	H	0.979440	0.764566	0.904592
H36	H	0.082909	0.748340	0.004123
H37	H	0.890423	0.706929	0.099628
H38	H	0.011291	0.736188	0.176162
H39	H	0.992994	0.602168	0.126930
O20	O	0.266757	0.340029	0.362930
C55	C	0.288594	0.362170	0.497537
C56	C	0.211219	0.355299	0.612852
H40	H	0.325449	0.286555	0.525260
H41	H	0.332229	0.439205	0.510297
H42	H	0.131513	0.322265	0.593991
H43	H	0.245946	0.307658	0.694271
H44	H	0.209668	0.430270	0.667798
O21	O	0.663505	0.898638	0.595192
C57	C	0.605286	0.827283	0.514161
C58	C	0.579473	0.876192	0.385651
H45	H	0.641341	0.751173	0.491764
H46	H	0.530885	0.804726	0.563152
H47	H	0.644024	0.855303	0.318735
H48	H	0.499938	0.846479	0.353837
H49	H	0.575974	0.962510	0.390696
O22	O	0.711742	0.103383	0.413266
C59	C	0.743635	0.195459	0.496150
C60	C	0.779701	0.168295	0.637725
H50	H	0.684420	0.247415	0.529331
H51	H	0.788114	0.256223	0.448381
H52	H	0.754688	0.087126	0.665603
H53	H	0.742983	0.221211	0.712152
H54	H	0.866257	0.182577	0.653623
O23	O	0.850674	0.655974	0.582987
C61	C	0.858657	0.693600	0.453111
C62	C	0.870395	0.607324	0.351574
H55	H	0.791440	0.742639	0.419196
H56	H	0.930301	0.745877	0.449361
H57	H	0.823138	0.630442	0.264234
H58	H	0.955615	0.598093	0.329732
H59	H	0.838659	0.529827	0.377564
O24	O	0.089791	0.371605	0.076583
C63	C	0.124232	0.329099	0.956708
C64	C	0.232687	0.274020	0.975903
H60	H	0.134251	0.395563	0.886450
H61	H	0.066609	0.270977	0.912125
H62	H	0.234669	0.197653	0.921958
H63	H	0.249619	0.255843	0.079864
H64	H	0.297471	0.325156	0.938429
