data_NiPyC2_relax_sc211_meta_functionalized_C-3CH3_lammps_PM
_symmetry_space_group_name_H-M	'P1'
_cell_length_a	12.505600
_cell_length_b	12.523400
_cell_length_c	10.276800
_cell_angle_alpha	90.000000
_cell_angle_beta	91.268998
_cell_angle_gamma	90.000000
_symmetry_Int_Tables_number 1

loop_
_symmetry_equiv_pos_as_xyz
'x,y,z'

loop_
_atom_site_label
_atom_site_type_symbol
_atom_site_fract_x
_atom_site_fract_y
_atom_site_fract_z
Ni1	Ni	0.206879	0.768564	0.825736
Ni2	Ni	0.465729	0.241075	0.299544
O1	O	0.169110	0.342304	0.383607
O2	O	0.313526	0.677297	0.832230
O3	O	0.364778	0.263048	0.427861
O4	O	0.098451	0.863480	0.859456
O5	O	0.564147	0.343974	0.370664
O6	O	0.165489	0.665300	0.941332
O7	O	0.073693	0.163575	0.492267
O8	O	0.250293	0.838446	0.951128
N1	N	0.266837	0.879721	0.700142
N2	N	0.110537	0.174512	0.222231
N3	N	0.147618	0.686946	0.680533
N4	N	0.407032	0.353950	0.175972
C1	C	0.237644	0.034203	0.554673
C2	C	0.130442	0.109263	0.996644
H1	H	0.197728	0.047926	0.470499
H2	H	0.508828	0.963085	0.997725
C3	C	0.343338	0.077983	0.572018
C4	C	0.154693	0.004826	0.045670
C5	C	0.407959	0.013366	0.651037
C6	C	0.194906	0.005404	0.179443
H3	H	0.040692	0.010557	0.716252
C7	C	0.204773	0.572554	0.503654
C8	C	0.381736	0.440503	0.961274
H4	H	0.249593	0.563781	0.417527
H5	H	0.034604	0.630520	0.119267
C9	C	0.209209	0.670973	0.572899
C10	C	0.416863	0.351926	0.043967
H6	H	0.269639	0.727840	0.548246
H7	H	0.121828	0.486896	0.251209
C11	C	0.202712	0.935696	0.615815
C12	C	0.112182	0.196915	0.089415
H8	H	0.135262	0.894717	0.572133
H9	H	0.442029	0.137367	0.071736
C13	C	0.371293	0.905601	0.695367
C14	C	0.180143	0.099316	0.257294
H10	H	0.427156	0.841097	0.706709
H11	H	0.244361	0.128002	0.315915
C15	C	0.078345	0.606990	0.709182
C16	C	0.343090	0.433047	0.225593
H12	H	0.019120	0.622405	0.772914
H13	H	0.335450	0.437808	0.328887
C17	C	0.098380	0.500043	0.671528
C18	C	0.295118	0.515956	0.144655
H14	H	0.475713	0.601778	0.571197
H15	H	0.256837	0.582862	0.190667
C19	C	0.147215	0.485555	0.553101
C20	C	0.309653	0.519853	0.009681
C21	C	0.403430	0.168456	0.479999
C22	C	0.164657	0.899660	0.954517
C23	C	0.109809	0.396371	0.468957
C24	C	0.260218	0.616928	0.921493
Ni3	Ni	0.768985	0.744644	0.863969
Ni4	Ni	0.048890	0.266966	0.362198
O9	O	0.564203	0.343979	0.370622
O10	O	0.889188	0.672990	0.882375
O11	O	0.927036	0.185173	0.382455
O12	O	0.647351	0.817781	0.882961
O13	O	0.013055	0.354109	0.479264
O14	O	0.735701	0.640649	0.977022
O15	O	0.495752	0.145977	0.419427
O16	O	0.794503	0.825862	0.991865
N5	N	0.830593	0.853826	0.747227
N6	N	0.576877	0.175263	0.168359
N7	N	0.716015	0.656719	0.713100
N8	N	0.996854	0.373539	0.227869
C25	C	0.802548	0.973450	0.569273
C26	C	0.559116	0.009097	0.049597
H16	H	0.111082	0.119227	0.895199
C27	C	0.914309	0.022064	0.574610
C28	C	0.662270	0.973450	0.056413
C29	C	0.974629	0.969202	0.670589
C30	C	0.733771	0.042708	0.113926
C31	C	0.731531	0.524418	0.540823
C32	C	0.995762	0.554238	0.130485
C33	C	0.773027	0.578587	0.656936
C34	C	0.048231	0.469559	0.203539
H17	H	0.857115	0.580394	0.675919
H18	H	0.468526	0.295731	0.005383
C35	C	0.766427	0.899085	0.663291
C36	C	0.522270	0.112200	0.090801
H19	H	0.702495	0.851175	0.640730
H20	H	0.079233	0.268541	0.055105
C37	C	0.935714	0.868326	0.724808
C38	C	0.688244	0.149738	0.170558
H21	H	0.982906	0.798135	0.711479
H22	H	0.738919	0.201088	0.222283
C39	C	0.616184	0.676383	0.658300
C40	C	0.895518	0.365826	0.180986
H23	H	0.571704	0.744216	0.689639
H24	H	0.843807	0.314608	0.225479
C41	C	0.561272	0.597083	0.580344
C42	C	0.853534	0.435796	0.085482
C43	C	0.615618	0.510237	0.526996
C44	C	0.898315	0.533623	0.063543
C45	C	0.971632	0.123962	0.481313
C46	C	0.697562	0.866745	0.984089
C47	C	0.545254	0.403925	0.477646
C48	C	0.840640	0.613104	0.971069
C49	C	0.492223	0.070073	0.729220
C50	C	0.566710	0.986984	0.773755
H25	H	0.583614	0.943178	0.687684
H26	H	0.642095	0.015468	0.818886
H27	H	0.525855	0.926090	0.823432
C51	C	0.429975	0.132305	0.826645
H28	H	0.375230	0.083370	0.883043
H29	H	0.489977	0.174321	0.881481
H30	H	0.378916	0.194072	0.779113
C52	C	0.569545	0.147284	0.667253
H31	H	0.614511	0.104515	0.595128
H32	H	0.532969	0.221128	0.633025
H33	H	0.632458	0.176724	0.734200
C53	C	0.285410	0.929436	0.218855
C54	C	0.368077	0.967421	0.320183
H34	H	0.383987	0.050897	0.298607
H35	H	0.448503	0.936247	0.306117
H36	H	0.353731	0.937166	0.415323
C55	C	0.240468	0.823291	0.260844
H37	H	0.191470	0.835803	0.348271
H38	H	0.306708	0.770800	0.288890
H39	H	0.192148	0.785268	0.182626
C56	C	0.356959	0.924054	0.108470
H40	H	0.372655	0.004915	0.100628
H41	H	0.348017	0.959660	0.011483
H42	H	0.420822	0.865803	0.114121
C57	C	0.053950	0.403585	0.750065
C58	C	0.063713	0.427073	0.894109
H43	H	0.046775	0.509419	0.913291
H44	H	0.003992	0.378646	0.943535
H45	H	0.143590	0.411977	0.937051
C59	C	0.114165	0.294153	0.734076
H46	H	0.173307	0.277554	0.813497
H47	H	0.057378	0.226111	0.734465
H48	H	0.163725	0.285810	0.648451
C60	C	0.933195	0.390289	0.716485
H49	H	0.881917	0.425514	0.790894
H50	H	0.912269	0.432165	0.626859
H51	H	0.907526	0.307066	0.700634
C61	C	0.442002	0.465116	0.839635
C62	C	0.534560	0.392101	0.811416
H52	H	0.589540	0.382327	0.890773
H53	H	0.581872	0.424635	0.734480
H54	H	0.505324	0.316272	0.784725
C63	C	0.362876	0.450189	0.723938
H55	H	0.325728	0.369888	0.727638
H56	H	0.399632	0.454753	0.628571
H57	H	0.299900	0.508984	0.724975
C64	C	0.493309	0.576374	0.856662
H58	H	0.469595	0.625952	0.938795
H59	H	0.467763	0.624685	0.776959
H60	H	0.580694	0.574695	0.867928
C65	C	0.741256	0.964243	0.448708
C66	C	0.622342	0.921866	0.443080
H61	H	0.598157	0.850855	0.495633
H62	H	0.604498	0.902990	0.341590
H63	H	0.562055	0.978696	0.473125
C67	C	0.737624	0.075412	0.410653
H64	H	0.765773	0.135393	0.480988
H65	H	0.659297	0.099880	0.381229
H66	H	0.792377	0.078374	0.338978
C68	C	0.806048	0.886812	0.369095
H67	H	0.807885	0.806043	0.412056
H68	H	0.891315	0.908859	0.365271
H69	H	0.766301	0.884153	0.273635
C69	C	0.857724	0.016691	0.087648
C70	C	0.916123	0.087466	0.166846
H70	H	0.901006	0.170818	0.153867
H71	H	0.988241	0.074979	0.132026
H72	H	0.934080	0.051640	0.260702
C71	C	0.929325	0.905321	0.121552
H73	H	0.001105	0.911941	0.187221
H74	H	0.966920	0.872063	0.034362
H75	H	0.894541	0.836083	0.167707
C72	C	0.877753	0.047263	0.943025
H76	H	0.897810	0.131633	0.926445
H77	H	0.810331	0.027272	0.877635
H78	H	0.949496	0.007215	0.909608
C73	C	0.787318	0.552909	0.420440
C74	C	0.898504	0.600238	0.419726
H79	H	0.920041	0.650141	0.504711
H80	H	0.955952	0.535009	0.412372
H81	H	0.907649	0.652961	0.334325
C75	C	0.725847	0.545651	0.299193
H82	H	0.652639	0.591375	0.308871
H83	H	0.766067	0.577037	0.217938
H84	H	0.706924	0.462477	0.285230
C76	C	0.806147	0.333035	0.451700
H85	H	0.815169	0.159965	0.717389
H86	H	0.761187	0.300711	0.832716
H87	H	0.812862	0.251549	0.009336
C77	C	0.541181	0.545033	0.129563
C78	C	0.435658	0.632811	0.343372
H88	H	0.655654	0.241228	0.505594
H89	H	0.105436	0.666626	0.314211
H90	H	0.706939	0.341074	0.653910
C79	C	0.572792	0.761896	0.180490
H91	H	0.667108	0.719800	0.425120
H92	H	0.429621	0.794412	0.488113
H93	H	0.766667	0.734035	0.191152
C80	C	0.652276	0.361688	0.100396
H94	H	0.665901	0.186857	0.930522
H95	H	0.729369	0.470240	0.868812
H96	H	0.376989	0.706465	0.097445
