data_NiPyC2_relax_sc211_meta_functionalized_P-2CH3_lammps_PM
_symmetry_space_group_name_H-M	'P1'
_cell_length_a	12.505600
_cell_length_b	12.523400
_cell_length_c	10.276800
_cell_angle_alpha	90.000000
_cell_angle_beta	91.268998
_cell_angle_gamma	90.000000
_symmetry_Int_Tables_number 1

loop_
_symmetry_equiv_pos_as_xyz
'x,y,z'

loop_
_atom_site_label
_atom_site_type_symbol
_atom_site_fract_x
_atom_site_fract_y
_atom_site_fract_z
Ni1	Ni	0.277337	0.793433	0.864776
Ni2	Ni	0.526328	0.248609	0.305024
O1	O	0.110548	0.343651	0.430792
O2	O	0.398880	0.711731	0.876270
O3	O	0.398940	0.175591	0.317359
O4	O	0.159391	0.875138	0.888514
O5	O	0.488551	0.342710	0.413824
O6	O	0.254157	0.702858	0.993656
O7	O	0.011263	0.164895	0.519909
O8	O	0.317796	0.893096	0.985860
N1	N	0.325646	0.890972	0.721340
N2	N	0.059816	0.164617	0.260242
N3	N	0.207655	0.688051	0.737453
N4	N	0.485939	0.355277	0.161198
C1	C	0.314926	0.965976	0.499804
C2	C	0.075795	0.082680	0.040587
H1	H	0.289931	0.950061	0.402568
H2	H	0.485027	0.901329	0.072584
C3	C	0.390583	0.048843	0.528266
C4	C	0.167478	0.022656	0.074772
C5	C	0.432820	0.048012	0.657313
C6	C	0.212003	0.046872	0.198275
H3	H	0.018713	0.941358	0.596010
H4	H	0.289804	0.015991	0.221746
C7	C	0.200882	0.572995	0.543098
C8	C	0.505917	0.546744	0.095446
C9	C	0.260532	0.634762	0.640879
C10	C	0.549917	0.444610	0.139310
H5	H	0.343734	0.653199	0.625062
H6	H	0.028503	0.320584	0.089655
C11	C	0.277823	0.894318	0.599537
C12	C	0.016360	0.141170	0.138636
H7	H	0.210756	0.843389	0.577670
H8	H	0.425515	0.086186	0.125592
C13	C	0.407401	0.963093	0.746508
C14	C	0.158808	0.118984	0.288905
H9	H	0.451332	0.958382	0.837292
H10	H	0.197587	0.136935	0.381246
C15	C	0.102065	0.659806	0.753904
C16	C	0.382912	0.362299	0.114190
H11	H	0.057747	0.700875	0.826735
H12	H	0.333955	0.291129	0.114221
C17	C	0.049035	0.576188	0.677241
C18	C	0.334635	0.464901	0.074682
C19	C	0.103364	0.519757	0.579468
C20	C	0.397822	0.557143	0.054257
C21	C	0.447004	0.120344	0.419439
C22	C	0.216519	0.932806	0.979349
C23	C	0.056274	0.407672	0.512224
C24	C	0.352538	0.660817	0.978443
Ni3	Ni	0.729236	0.725507	0.834907
Ni4	Ni	0.990511	0.266091	0.392976
O9	O	0.650760	0.322716	0.336773
O10	O	0.847564	0.642445	0.850644
O11	O	0.866928	0.185540	0.394352
O12	O	0.610064	0.807001	0.856577
O13	O	0.953548	0.366640	0.517546
O14	O	0.693567	0.625392	0.950541
O15	O	0.548419	0.155267	0.433813
O16	O	0.765001	0.806490	0.961234
N5	N	0.785299	0.834358	0.707615
N6	N	0.581892	0.138670	0.178813
N7	N	0.673627	0.636686	0.692772
N8	N	0.940329	0.372526	0.249910
C25	C	0.753021	0.972236	0.543414
C26	C	0.539499	0.967197	0.075134
C27	C	0.864015	0.010105	0.549350
C28	C	0.643161	0.950557	0.035671
C29	C	0.934071	0.936199	0.612115
C30	C	0.723743	0.015122	0.095414
C31	C	0.700009	0.540734	0.490183
C32	C	0.901256	0.417110	0.019992
H13	H	0.726805	0.547753	0.393535
H14	H	0.554770	0.617493	0.102545
C33	C	0.733099	0.617607	0.584894
C34	C	0.957363	0.357986	0.119067
H15	H	0.808626	0.657527	0.574111
H16	H	0.634787	0.439855	0.158095
C35	C	0.718115	0.908723	0.650398
C36	C	0.508406	0.064976	0.132358
H17	H	0.633758	0.904627	0.667444
H18	H	0.935200	0.164615	0.116596
C37	C	0.892719	0.845441	0.683154
C38	C	0.690473	0.113571	0.163734
H19	H	0.946234	0.785430	0.714993
H20	H	0.750592	0.166797	0.202740
C39	C	0.581082	0.579375	0.708228
C40	C	0.885777	0.465168	0.281541
H21	H	0.534694	0.593283	0.793238
H22	H	0.890534	0.495258	0.379044
C41	C	0.551523	0.494260	0.621356
C42	C	0.836455	0.533395	0.183110
H23	H	0.965851	0.561272	0.690490
H24	H	0.799444	0.607193	0.211716
C43	C	0.618522	0.468547	0.515849
C44	C	0.845134	0.510791	0.049673
C45	C	0.909971	0.125963	0.494879
C46	C	0.670256	0.851558	0.955286
C47	C	0.586452	0.380309	0.418721
C48	C	0.792773	0.584824	0.941504
P1	P	0.506525	0.161839	0.715705
C49	C	0.650111	0.155696	0.711759
H25	H	0.676824	0.082862	0.762659
H26	H	0.681115	0.222651	0.770697
H27	H	0.680237	0.162576	0.611981
C50	C	0.484373	0.189407	0.882332
H28	H	0.504924	0.272330	0.905787
H29	H	0.547482	0.143720	0.930453
H30	H	0.402341	0.167348	0.911056
P2	P	0.036577	0.090109	0.873621
C51	C	0.897794	0.116970	0.835075
H31	H	0.853671	0.040768	0.827658
H32	H	0.861410	0.165349	0.912369
H33	H	0.892358	0.160896	0.742888
C52	C	0.147015	0.099333	0.760743
H34	H	0.224162	0.101303	0.815650
H35	H	0.145491	0.029505	0.696572
H36	H	0.144709	0.170562	0.699043
P3	P	0.203409	0.628664	0.384314
C53	C	0.333221	0.683774	0.346354
H37	H	0.356527	0.744970	0.419130
H38	H	0.329328	0.721432	0.248876
H39	H	0.393622	0.618850	0.347702
C54	C	0.096544	0.726494	0.368290
H40	H	0.023020	0.686344	0.330880
H41	H	0.120092	0.790449	0.299998
H42	H	0.078536	0.761644	0.464143
P4	P	0.193141	0.472416	0.067661
C55	C	0.180691	0.412538	0.220320
H43	H	0.249947	0.428384	0.285315
H44	H	0.173196	0.325598	0.208580
H45	H	0.112816	0.451413	0.264120
C56	C	0.098529	0.583389	0.078516
H46	H	0.059539	0.596756	0.984283
H47	H	0.129246	0.655568	0.126161
H48	H	0.034160	0.562995	0.142906
P5	P	0.693762	0.925276	0.390535
C57	C	0.552248	0.889918	0.395533
H49	H	0.524871	0.883123	0.496414
H50	H	0.535942	0.812559	0.346919
H51	H	0.504215	0.945981	0.338202
C58	C	0.746780	0.793688	0.352596
H52	H	0.818335	0.776152	0.413746
H53	H	0.763991	0.788310	0.247772
H54	H	0.687394	0.731105	0.371629
P6	P	0.863913	0.961584	0.111836
C59	C	0.927788	0.949135	0.266892
H55	H	0.925563	0.867584	0.303719
H56	H	0.885657	0.006689	0.319741
H57	H	0.013625	0.966151	0.265546
C60	C	0.949274	0.863168	0.031361
H58	H	0.948640	0.875106	0.925379
H59	H	0.927958	0.780342	0.059184
H60	H	0.031525	0.868869	0.069740
P7	P	0.438653	0.409699	0.660781
C61	C	0.388359	0.428555	0.814980
H61	H	0.460151	0.437257	0.877528
H62	H	0.337059	0.499818	0.812546
H63	H	0.339683	0.358193	0.841932
C62	C	0.324706	0.362949	0.565102
H64	H	0.334581	0.278012	0.539346
H65	H	0.252330	0.366856	0.624591
H66	H	0.315931	0.412065	0.477228
P8	P	0.925459	0.384137	0.856853
C63	C	0.061742	0.351458	0.819058
H67	H	0.112363	0.423003	0.815886
H68	H	0.098007	0.299477	0.894364
H69	H	0.060168	0.310928	0.725219
C64	C	0.815592	0.386164	0.740221
H70	H	0.738938	0.395709	0.791160
H71	H	0.826927	0.453714	0.674969
H72	H	0.814945	0.313004	0.680514
