data_NiPyC2_relax_sc211_ortho_functionalized_O-CH3_lammps_PM
_symmetry_space_group_name_H-M	'P1'
_cell_length_a	12.505600
_cell_length_b	12.523400
_cell_length_c	10.276800
_cell_angle_alpha	90.000000
_cell_angle_beta	91.268998
_cell_angle_gamma	90.000000
_symmetry_Int_Tables_number 1

loop_
_symmetry_equiv_pos_as_xyz
'x,y,z'

loop_
_atom_site_label
_atom_site_type_symbol
_atom_site_fract_x
_atom_site_fract_y
_atom_site_fract_z
Ni1	Ni	0.269720	0.760579	0.885240
Ni2	Ni	0.525343	0.225174	0.354983
O1	O	0.092095	0.350357	0.399739
O2	O	0.387379	0.673207	0.901265
O3	O	0.409440	0.139873	0.366897
O4	O	0.156382	0.849346	0.902917
O5	O	0.500556	0.303469	0.493813
O6	O	0.244533	0.673460	0.021564
O7	O	0.008508	0.173028	0.516985
O8	O	0.313160	0.865148	0.003811
N1	N	0.322880	0.849490	0.737059
N2	N	0.050984	0.154587	0.256964
N3	N	0.197090	0.653920	0.760851
N4	N	0.461491	0.340419	0.237222
C1	C	0.324761	0.927791	0.517164
C2	C	0.069247	0.064504	0.043687
H1	H	0.287944	0.932798	0.422411
H2	H	0.513892	0.039372	0.911876
C3	C	0.420318	0.986984	0.544095
C4	C	0.161859	0.004517	0.082544
C5	C	0.465861	0.970847	0.667895
C6	C	0.203110	0.031718	0.208164
H3	H	0.999797	0.021537	0.720863
H4	H	0.282761	0.005206	0.233828
C7	C	0.178137	0.564740	0.546601
C8	C	0.481357	0.472289	0.058359
H5	H	0.204756	0.562763	0.447247
H6	H	0.951512	0.436384	0.918851
C9	C	0.239902	0.625067	0.643114
C10	C	0.520728	0.383992	0.137818
H7	H	0.318081	0.654292	0.617986
C11	C	0.269478	0.870626	0.620533
C12	C	0.007745	0.125400	0.137209
C13	C	0.416575	0.901896	0.760678
C14	C	0.150717	0.111614	0.291136
H8	H	0.448646	0.896785	0.855768
C15	C	0.097702	0.610551	0.790163
C16	C	0.365243	0.389920	0.265156
C17	C	0.046180	0.529617	0.705404
C18	C	0.327257	0.482589	0.192365
H9	H	0.471125	0.475822	0.644589
H10	H	0.251229	0.517736	0.216811
C19	C	0.087162	0.503199	0.581559
C20	C	0.384292	0.525166	0.086415
C21	C	0.468088	0.074767	0.448220
C22	C	0.213062	0.910024	0.990853
C23	C	0.036260	0.409350	0.486962
C24	C	0.339809	0.625326	0.003984
Ni3	Ni	0.721500	0.732358	0.845110
Ni4	Ni	0.979328	0.260476	0.380016
O9	O	0.643607	0.306948	0.376365
O10	O	0.835936	0.645738	0.864174
O11	O	0.863777	0.172772	0.393479
O12	O	0.604863	0.816679	0.858127
O13	O	0.938035	0.362390	0.497362
O14	O	0.676554	0.625207	0.949485
O15	O	0.567531	0.117601	0.462886
O16	O	0.746976	0.809349	0.985110
N5	N	0.788343	0.845617	0.731920
N6	N	0.572490	0.141392	0.204611
N7	N	0.674491	0.650543	0.692100
N8	N	0.920748	0.350413	0.231120
C25	C	0.772361	0.971885	0.546817
C26	C	0.538559	0.031120	0.011081
H11	H	0.729222	0.993125	0.459295
H12	H	0.040979	0.060690	0.943742
C27	C	0.868047	0.026561	0.581059
C28	C	0.624450	0.961967	0.043381
C29	C	0.923255	0.987024	0.693570
C30	C	0.688890	0.992829	0.150084
H13	H	0.538891	0.012296	0.694953
H14	H	0.757685	0.945143	0.178764
C31	C	0.726087	0.503205	0.552817
C32	C	0.916194	0.430982	0.012531
H15	H	0.791077	0.456450	0.526204
H16	H	0.525537	0.496024	0.974063
C33	C	0.747371	0.604630	0.611150
C34	C	0.972683	0.372723	0.116826
H17	H	0.596423	0.348004	0.114322
C35	C	0.732042	0.885526	0.625185
C36	C	0.506556	0.113654	0.100155
H18	H	0.656572	0.849370	0.596946
H19	H	0.929316	0.154387	0.108302
C37	C	0.884029	0.895739	0.766770
C38	C	0.666947	0.087531	0.219944
H20	H	0.717383	0.107662	0.299377
C39	C	0.571851	0.612072	0.687013
C40	C	0.826444	0.403619	0.251648
H21	H	0.511103	0.653207	0.738561
H22	H	0.792291	0.397187	0.342716
C41	C	0.546152	0.513670	0.623810
C42	C	0.780257	0.478211	0.161068
H23	H	0.967194	0.501764	0.727796
H24	H	0.711581	0.524717	0.189280
C43	C	0.622589	0.459724	0.548938
C44	C	0.822793	0.492546	0.037877
C45	C	0.913146	0.124604	0.497090
C46	C	0.654247	0.858840	0.966085
C47	C	0.595264	0.350173	0.482079
C48	C	0.776004	0.581428	0.941065
O17	O	0.158908	0.863048	0.615501
C49	C	0.121420	0.815146	0.498666
H25	H	0.085860	0.877589	0.434332
H26	H	0.057763	0.757726	0.522965
H27	H	0.182883	0.770710	0.443330
O18	O	0.214217	0.166987	0.379219
C50	C	0.207119	0.133694	0.509913
H28	H	0.286402	0.128120	0.555231
H29	H	0.160772	0.059138	0.524508
H30	H	0.178372	0.200534	0.570204
O19	O	0.034046	0.665198	0.875249
C51	C	0.044829	0.631871	0.006103
H31	H	0.966772	0.625272	0.049952
H32	H	0.074569	0.698715	0.067101
H33	H	0.091550	0.557320	0.021531
O20	O	0.295807	0.340848	0.347608
C52	C	0.311216	0.375357	0.477391
H34	H	0.237152	0.382752	0.526106
H35	H	0.335341	0.308934	0.541401
H36	H	0.357497	0.450511	0.488824
O21	O	0.954372	0.845002	0.851027
C53	C	0.938335	0.872511	0.982609
H37	H	0.012883	0.879298	0.036051
H38	H	0.914091	0.801995	0.038474
H39	H	0.888335	0.944943	0.998532
O22	O	0.408211	0.162895	0.082752
C54	C	0.403490	0.216513	0.961313
H40	H	0.363797	0.164415	0.887250
H41	H	0.354365	0.289421	0.970871
H42	H	0.482730	0.243059	0.925133
O23	O	0.842441	0.656134	0.587127
C55	C	0.839216	0.695522	0.457851
H43	H	0.878747	0.637581	0.392639
H44	H	0.884143	0.771599	0.454503
H45	H	0.757292	0.713983	0.418356
O24	O	0.083256	0.365869	0.115868
C56	C	0.119871	0.317467	0.000914
H46	H	0.157310	0.379242	0.939192
H47	H	0.182135	0.258457	0.028574
H48	H	0.057551	0.274849	0.941522
