data_NiPyC2_relax_sc211_ortho_functionalized_CH-CH2_lammps_PM
_symmetry_space_group_name_H-M	'P1'
_cell_length_a	12.505600
_cell_length_b	12.523400
_cell_length_c	10.276800
_cell_angle_alpha	90.000000
_cell_angle_beta	91.268998
_cell_angle_gamma	90.000000
_symmetry_Int_Tables_number 1

loop_
_symmetry_equiv_pos_as_xyz
'x,y,z'

loop_
_atom_site_label
_atom_site_type_symbol
_atom_site_fract_x
_atom_site_fract_y
_atom_site_fract_z
Ni1	Ni	0.255928	0.761114	0.840705
Ni2	Ni	0.498272	0.270082	0.367606
O1	O	0.099385	0.340190	0.364563
O2	O	0.379646	0.682932	0.843562
O3	O	0.370780	0.198018	0.374064
O4	O	0.136628	0.837983	0.871964
O5	O	0.470391	0.365149	0.490279
O6	O	0.239413	0.667198	0.968180
O7	O	0.042533	0.150474	0.467890
O8	O	0.297120	0.859367	0.963623
N1	N	0.296951	0.864861	0.700483
N2	N	0.052479	0.154448	0.204388
N3	N	0.189392	0.654267	0.713098
N4	N	0.457775	0.379451	0.221052
C1	C	0.268385	0.998579	0.523974
C2	C	0.033904	0.989005	0.077880
H1	H	0.223847	0.023414	0.437669
H2	H	0.478305	0.028826	0.959491
C3	C	0.363598	0.052637	0.558523
C4	C	0.144883	0.978999	0.059037
C5	C	0.418536	0.015655	0.669297
C6	C	0.208824	0.051705	0.129859
H3	H	0.967152	0.081913	0.724620
H4	H	0.293404	0.037506	0.137931
C7	C	0.160084	0.568503	0.500721
C8	C	0.411273	0.433489	0.995369
H5	H	0.165498	0.580695	0.396897
H6	H	0.916191	0.456790	0.914851
C9	C	0.224810	0.633052	0.589932
C10	C	0.462370	0.360833	0.088106
H7	H	0.292882	0.676174	0.553852
C11	C	0.233783	0.905106	0.596000
C12	C	0.989768	0.088798	0.122789
H8	H	0.412794	0.162450	0.118551
C13	C	0.389382	0.918984	0.731007
C14	C	0.161287	0.136098	0.205168
H9	H	0.439093	0.890150	0.809699
H10	H	0.211661	0.186721	0.262467
C15	C	0.104702	0.593705	0.754927
C16	C	0.421452	0.481321	0.255082
C17	C	0.062758	0.503366	0.680323
C18	C	0.411119	0.565335	0.161934
H11	H	0.466274	0.517252	0.665342
H12	H	0.394482	0.645613	0.195648
C19	C	0.090344	0.488636	0.549056
C20	C	0.391604	0.541322	0.031447
C21	C	0.415241	0.142341	0.475155
C22	C	0.193926	0.894973	0.961341
C23	C	0.046537	0.389298	0.462706
C24	C	0.334231	0.624517	0.940579
Ni3	Ni	0.736183	0.763870	0.875663
Ni4	Ni	0.992380	0.246344	0.347605
O9	O	0.623205	0.341715	0.393242
O10	O	0.847228	0.682001	0.908192
O11	O	0.886207	0.151976	0.363166
O12	O	0.618400	0.849242	0.878270
O13	O	0.953672	0.335206	0.481280
O14	O	0.694390	0.677371	0.007420
O15	O	0.514269	0.177803	0.497459
O16	O	0.768864	0.862705	0.995028
N5	N	0.803200	0.859854	0.732218
N6	N	0.552688	0.159960	0.240734
N7	N	0.686598	0.654750	0.745010
N8	N	0.919904	0.346776	0.219027
C25	C	0.841043	0.922010	0.506833
C26	C	0.526536	0.046705	0.045010
H13	H	0.831292	0.908292	0.403356
H14	H	0.981454	0.923982	0.050852
C27	C	0.903157	0.010195	0.550189
C28	C	0.622884	0.990650	0.069045
C29	C	0.916808	0.019025	0.685593
C30	C	0.679063	0.016970	0.184563
H15	H	0.489947	0.056959	0.703254
H16	H	0.750425	0.972068	0.210593
C31	C	0.721446	0.533536	0.562287
C32	C	0.900364	0.452213	0.017529
H17	H	0.778041	0.499897	0.496911
H18	H	0.401620	0.409722	0.894422
C33	C	0.756935	0.613504	0.655231
C34	C	0.959437	0.377710	0.098587
H19	H	0.838240	0.643032	0.652464
H20	H	0.517441	0.303451	0.051043
C35	C	0.780973	0.856724	0.596965
C36	C	0.489846	0.126157	0.135853
C37	C	0.872446	0.940879	0.773146
C38	C	0.639602	0.094266	0.274911
H21	H	0.895556	0.946356	0.872888
C39	C	0.600154	0.589501	0.767072
C40	C	0.832326	0.402543	0.262048
H22	H	0.798295	0.379072	0.351541
C41	C	0.548209	0.543815	0.656951
C42	C	0.791664	0.496622	0.196745
H23	H	0.001119	0.453685	0.720736
H24	H	0.730377	0.544042	0.241931
C43	C	0.613223	0.497774	0.561630
C44	C	0.827770	0.524830	0.072764
C45	C	0.947407	0.098360	0.452996
C46	C	0.671996	0.906942	0.972832
C47	C	0.571246	0.399336	0.484254
C48	C	0.792731	0.632630	0.002863
C49	C	0.153274	0.838454	0.528475
C50	C	0.059318	0.817302	0.579497
H25	H	0.168157	0.812631	0.429521
H26	H	0.039841	0.847853	0.673242
H27	H	0.002479	0.766578	0.527482
C51	C	0.912673	0.138377	0.029076
C52	C	0.818618	0.177392	0.062897
H28	H	0.931501	0.137298	0.926980
H29	H	0.799695	0.189017	0.163012
H30	H	0.761723	0.203006	0.988137
C53	C	0.037699	0.642696	0.848765
C54	C	0.046194	0.619060	0.975066
H31	H	0.000816	0.716797	0.819081
H32	H	0.015542	0.673399	0.047623
H33	H	0.091405	0.550553	0.006721
C55	C	0.355343	0.492110	0.365707
C56	C	0.291065	0.412026	0.392864
H34	H	0.377498	0.549701	0.439670
H35	H	0.275068	0.352594	0.319166
H36	H	0.273308	0.393816	0.493320
C57	C	0.685843	0.802146	0.541963
C58	C	0.589042	0.826732	0.581532
H37	H	0.694096	0.751207	0.457134
H38	H	0.580504	0.889463	0.651584
H39	H	0.518860	0.789748	0.536749
C59	C	0.663573	0.068643	0.412783
C60	C	0.710137	0.137038	0.497107
H40	H	0.631240	0.995688	0.450043
H41	H	0.738380	0.213932	0.467048
H42	H	0.713423	0.117634	0.600061
C61	C	0.609268	0.515017	0.878419
C62	C	0.660273	0.421182	0.868462
H43	H	0.582810	0.539288	0.972097
H44	H	0.671901	0.371654	0.953876
H45	H	0.694725	0.395934	0.777629
C63	C	0.059467	0.333289	0.047775
C64	C	0.154478	0.368352	0.090047
H46	H	0.055995	0.283508	0.961449
H47	H	0.160466	0.432248	0.160940
H48	H	0.226546	0.334957	0.050092
