data_NiPyC2_relax_sc211_meta_functionalized_O-CH3_lammps_PM
_symmetry_space_group_name_H-M	'P1'
_cell_length_a	12.505600
_cell_length_b	12.523400
_cell_length_c	10.276800
_cell_angle_alpha	90.000000
_cell_angle_beta	91.268998
_cell_angle_gamma	90.000000
_symmetry_Int_Tables_number 1

loop_
_symmetry_equiv_pos_as_xyz
'x,y,z'

loop_
_atom_site_label
_atom_site_type_symbol
_atom_site_fract_x
_atom_site_fract_y
_atom_site_fract_z
Ni1	Ni	0.277854	0.748730	0.882558
Ni2	Ni	0.525637	0.233357	0.362745
O1	O	0.137789	0.325979	0.395882
O2	O	0.401726	0.672629	0.903034
O3	O	0.408800	0.149736	0.377556
O4	O	0.154891	0.824840	0.900452
O5	O	0.490307	0.327725	0.486259
O6	O	0.249705	0.656265	0.008151
O7	O	0.050810	0.152646	0.507796
O8	O	0.311242	0.847917	0.004674
N1	N	0.327422	0.849298	0.741396
N2	N	0.075537	0.141434	0.248979
N3	N	0.222127	0.641968	0.749136
N4	N	0.465748	0.332410	0.226976
C1	C	0.457186	0.902167	0.575015
C2	C	0.062514	0.030006	0.050564
H1	H	0.522579	0.878659	0.513933
H2	H	0.530712	0.018762	0.931005
C3	C	0.415011	0.007311	0.564367
C4	C	0.159872	0.975095	0.081874
C5	C	0.327240	0.030568	0.643311
C6	C	0.214652	0.009877	0.195963
H3	H	0.289401	0.972204	0.224816
C7	C	0.243438	0.479857	0.618845
C8	C	0.490139	0.462530	0.050371
C9	C	0.271443	0.544445	0.730263
C10	C	0.527628	0.374648	0.130277
H4	H	0.346049	0.526531	0.779260
H5	H	0.087529	0.323081	0.101012
C11	C	0.414315	0.825479	0.665929
C12	C	0.017471	0.105695	0.141811
H6	H	0.451935	0.748199	0.675168
H7	H	0.458352	0.154135	0.085949
C13	C	0.282796	0.950269	0.726592
C14	C	0.172910	0.093826	0.275687
H8	H	0.212067	0.970958	0.777183
H9	H	0.215837	0.115186	0.363903
C15	C	0.125711	0.656557	0.683789
C16	C	0.366402	0.377180	0.244769
H10	H	0.089307	0.732665	0.685581
H11	H	0.317956	0.346106	0.320989
C17	C	0.076971	0.572648	0.604505
C18	C	0.335451	0.476872	0.183875
H12	H	0.529232	0.433117	0.720703
C19	C	0.135946	0.479989	0.571637
C20	C	0.392652	0.516081	0.076722
C21	C	0.464322	0.094306	0.471624
C22	C	0.208505	0.883019	0.994425
C23	C	0.085321	0.384864	0.486519
C24	C	0.350632	0.618515	0.999798
Ni3	Ni	0.765754	0.738327	0.860504
Ni4	Ni	0.017993	0.245433	0.377527
O9	O	0.643115	0.317310	0.380557
O10	O	0.885876	0.655153	0.876149
O11	O	0.898218	0.166084	0.393020
O12	O	0.646240	0.818572	0.879041
O13	O	0.984043	0.345768	0.498024
O14	O	0.734093	0.642311	0.984381
O15	O	0.562797	0.138640	0.488900
O16	O	0.803195	0.832593	0.984293
N5	N	0.818545	0.840139	0.724963
N6	N	0.583434	0.133954	0.228781
N7	N	0.706768	0.639841	0.726463
N8	N	0.961073	0.341605	0.235500
C25	C	0.792108	0.003785	0.593700
C26	C	0.570125	0.030288	0.024868
H13	H	0.738290	0.067272	0.566258
C27	C	0.902681	0.014534	0.569745
C28	C	0.656325	0.962335	0.063394
C29	C	0.968786	0.932710	0.622396
C30	C	0.698414	0.977586	0.190603
C31	C	0.710903	0.542603	0.519603
C32	C	0.972485	0.443853	0.029058
H14	H	0.538939	0.488859	0.973055
C33	C	0.756488	0.618468	0.611404
C34	C	0.013216	0.363452	0.121032
H15	H	0.823482	0.666884	0.582788
H16	H	0.606002	0.341496	0.113726
C35	C	0.751050	0.911933	0.661878
C36	C	0.530736	0.111351	0.112296
H17	H	0.665846	0.903700	0.670389
H18	H	0.939143	0.139113	0.121033
C37	C	0.926415	0.857435	0.714763
C38	C	0.670872	0.071830	0.262397
H19	H	0.979029	0.822684	0.786704
H20	H	0.713328	0.088003	0.351973
C39	C	0.619026	0.579630	0.755881
C40	C	0.864442	0.390852	0.253834
H21	H	0.570205	0.604896	0.833908
H22	H	0.821628	0.373583	0.340766
C41	C	0.591788	0.484511	0.685163
C42	C	0.819675	0.465546	0.161833
H23	H	0.997912	0.584547	0.562370
H24	H	0.737204	0.489037	0.169659
C43	C	0.634929	0.465150	0.561848
C44	C	0.878388	0.503380	0.056537
C45	C	0.949894	0.112707	0.491647
C46	C	0.702815	0.873748	0.971938
C47	C	0.588402	0.372593	0.472220
C48	C	0.832407	0.598627	0.969039
O17	O	0.278335	0.129217	0.634334
C49	C	0.319225	0.194486	0.735574
H25	H	0.274829	0.271079	0.733619
H26	H	0.307005	0.158351	0.833288
H27	H	0.405284	0.212936	0.721645
O18	O	0.014749	0.017449	0.929270
C50	C	0.031595	0.110504	0.853706
H28	H	0.952585	0.142976	0.822713
H29	H	0.077998	0.176181	0.902291
H30	H	0.075282	0.089544	0.765124
O19	O	0.323751	0.451253	0.536124
C51	C	0.377173	0.545861	0.496531
H31	H	0.430484	0.527586	0.415728
H32	H	0.321269	0.611005	0.466123
H33	H	0.429334	0.577937	0.575260
O20	O	0.274425	0.548171	0.253236
C52	C	0.166608	0.545966	0.212823
H34	H	0.154367	0.516625	0.112028
H35	H	0.134485	0.628471	0.216947
H36	H	0.119918	0.498797	0.281088
O21	O	0.076121	0.930602	0.594845
C53	C	0.090008	0.875872	0.476396
H37	H	0.061314	0.924885	0.392803
H38	H	0.049728	0.796547	0.474110
H39	H	0.176762	0.861731	0.463911
O22	O	0.740043	0.890701	0.257591
C54	C	0.851892	0.900163	0.272040
H40	H	0.893473	0.871249	0.185051
H41	H	0.878584	0.982409	0.294477
H42	H	0.877845	0.848611	0.354473
O23	O	0.728464	0.556727	0.389330
C55	C	0.657929	0.636307	0.340658
H43	H	0.576561	0.603030	0.324645
H44	H	0.655068	0.708882	0.403418
H45	H	0.686522	0.663500	0.244886
O24	O	0.022542	0.457934	0.912184
C56	C	0.972099	0.392604	0.816707
H46	H	0.034927	0.351345	0.761402
H47	H	0.924505	0.443570	0.748668
H48	H	0.918139	0.329171	0.854501
